
This summary file was generated by TurbSim (from OpenFAST-v3.3.0) on 09-Jan-2023 at 13:47:33.


Runtime Options:

         1  Random seed #1
         2  Random seed #2
         F  Output binary HH turbulence parameters?
         F  Output formatted turbulence parameters?
         F  Output AeroDyn HH files?
         T  Output AeroDyn FF files?
         F  Output BLADED FF files?
         F  Output tower data?
         F  Output HAWC FF files?
         F  Output formatted FF files?
         T  Output coherent turbulence time step file?
 0 -  NONE  IEC turbulence models scaled to exact specified standard deviation


Turbine/Model Specifications:

        61  Vertical grid-point matrix dimension
        73  Horizontal grid-point matrix dimension
     0.100  Time step [seconds]
   600.000  Analysis time [seconds]
   600.000  Usable output time [seconds]
   151.000  Hub height [m]
   300.000  Grid height [m]
   360.000  Grid width [m]
     0.000  Vertical flow angle [degrees]
     0.000  Horizontal flow angle [degrees]


Meteorological Boundary Conditions:

    TIMESR  User-input time series spectral model
       N/A  IEC standard
       N/A  IEC turbulence characteristic
       N/A  IEC turbulence type
       N/A  IEC Extreme Turbulence Model (ETM) "c" parameter [m/s]
       PL   Wind profile type
   119.000  Reference height [m]
    11.400  Reference wind speed [m/s]
       N/A  Jet height [m]
     0.100  Power law exponent
     0.030  Surface roughness length [m]


Non-IEC Meteorological Boundary Conditions:

    45.000  Site latitude [degrees]
     0.050  Gradient Richardson number
     0.529  Friction or shear velocity [m/s]
       N/A  Mixing layer depth [m]
       N/A  Mean hub u'w' Reynolds stress
       N/A  Mean hub u'v' Reynolds stress
       N/A  Mean hub v'w' Reynolds stress


Spatial Coherence Models:

       IEC  u-component coherence model
       IEC  v-component coherence model
       IEC  w-component coherence model
(   12.000, 0.659E-03)  u-component coherence parameters
(   12.000, 0.659E-03)  v-component coherence parameters
(   12.000, 0.659E-03)  w-component coherence parameters
       N/A  Coherence exponent


Coherent Turbulence Scaling Parameters:

.\EventData
            Name of the path containing the coherent turbulence data files
       les  Type of coherent turbulence data files
     1.000  Disturbance scale (ratio of wave height to rotor diameter)
     0.500  Fractional location of tower centerline from right
     0.500  Fractional location of hub height from the bottom of the dataset
    30.000  Minimum start time for coherent structures [seconds]


Profiles from User-Defined Time-Series Input:

  Height   Wind Speed   Horizontal Angle   Vertical Angle
   (m)        (m/s)          (deg)              (deg)    
  ------   ----------   ----------------   --------------
  119.00      11.47           0.00               -0.00


You have requested that the following file(s) be generated:

   HighT3.bts (AeroDyn/TurbSim full-field wind file)


Turbulence Simulation Scaling Parameter Summary:

   Turbulence model used                            =  User-input time series
   Gradient Richardson number                       =    0.050
   Monin-Obukhov (M-O) z/L parameter                =    0.067
   Monin-Obukhov (M-O) length scale                 = 2265.000 m
   Mean wind speed at hub height                    =   11.675 m/s

   Wind profile type                                =  Power law
   Power law exponent                               =    0.100
   Mean shear across rotor disk                     =    0.018 (m/s)/m
   Assumed rotor diameter                           =  300.000 m
   Surface roughness length                         =    0.030 m

   Nyquist frequency of turbulent wind field        =    5.000 Hz

   Number of time steps in the FFT                  =     6000
   Number of time steps output                      =     6000
   Number of points simulated                       =     4454


Mean Flow Angles:

   Vertical   =   0.0 degrees
   Horizontal =   0.0 degrees

Mean Wind Speed Profile:

   Height    Wind Speed   Horizontal Angle  Vertical Angle  U-comp (X)   V-comp (Y)   W-comp (Z)
     (m)        (m/s)         (degrees)       (degrees)       (m/s)        (m/s)        (m/s)   
   ------    ----------   ----------------  --------------  ----------   ----------   ----------
    301.0       12.51            0.00            0.00         12.51         0.00         0.00
    296.0       12.49            0.00            0.00         12.49         0.00         0.00
    291.0       12.47            0.00            0.00         12.47         0.00         0.00
    286.0       12.44            0.00            0.00         12.44         0.00         0.00
    281.0       12.42            0.00            0.00         12.42         0.00         0.00
    276.0       12.40            0.00            0.00         12.40         0.00         0.00
    271.0       12.38            0.00            0.00         12.38         0.00         0.00
    266.0       12.35            0.00            0.00         12.35         0.00         0.00
    261.0       12.33            0.00            0.00         12.33         0.00         0.00
    256.0       12.31            0.00            0.00         12.31         0.00         0.00
    251.0       12.28            0.00            0.00         12.28         0.00         0.00
    246.0       12.26            0.00            0.00         12.26         0.00         0.00
    241.0       12.23            0.00            0.00         12.23         0.00         0.00
    236.0       12.21            0.00            0.00         12.21         0.00         0.00
    231.0       12.18            0.00            0.00         12.18         0.00         0.00
    226.0       12.16            0.00            0.00         12.16         0.00         0.00
    221.0       12.13            0.00            0.00         12.13         0.00         0.00
    216.0       12.10            0.00            0.00         12.10         0.00         0.00
    211.0       12.07            0.00            0.00         12.07         0.00         0.00
    206.0       12.04            0.00            0.00         12.04         0.00         0.00
    201.0       12.01            0.00            0.00         12.01         0.00         0.00
    196.0       11.98            0.00            0.00         11.98         0.00         0.00
    191.0       11.95            0.00            0.00         11.95         0.00         0.00
    186.0       11.92            0.00            0.00         11.92         0.00         0.00
    181.0       11.89            0.00            0.00         11.89         0.00         0.00
    176.0       11.85            0.00            0.00         11.85         0.00         0.00
    171.0       11.82            0.00            0.00         11.82         0.00         0.00
    166.0       11.79            0.00            0.00         11.79         0.00         0.00
    161.0       11.75            0.00            0.00         11.75         0.00         0.00
    156.0       11.71            0.00            0.00         11.71         0.00         0.00
    151.0       11.67            0.00            0.00         11.67         0.00         0.00
    146.0       11.64            0.00            0.00         11.64         0.00         0.00
    141.0       11.60            0.00            0.00         11.60         0.00         0.00
    136.0       11.55            0.00            0.00         11.55         0.00         0.00
    131.0       11.51            0.00            0.00         11.51         0.00         0.00
    126.0       11.47            0.00            0.00         11.47         0.00         0.00
    121.0       11.42            0.00            0.00         11.42         0.00         0.00
    116.0       11.37            0.00            0.00         11.37         0.00         0.00
    111.0       11.32            0.00            0.00         11.32         0.00         0.00
    106.0       11.27            0.00            0.00         11.27         0.00         0.00
    101.0       11.21            0.00            0.00         11.21         0.00         0.00
     96.0       11.16            0.00            0.00         11.16         0.00         0.00
     91.0       11.10            0.00            0.00         11.10         0.00         0.00
     86.0       11.04            0.00            0.00         11.04         0.00         0.00
     81.0       10.97            0.00            0.00         10.97         0.00         0.00
     76.0       10.90            0.00            0.00         10.90         0.00         0.00
     71.0       10.83            0.00            0.00         10.83         0.00         0.00
     66.0       10.75            0.00            0.00         10.75         0.00         0.00
     61.0       10.66            0.00            0.00         10.66         0.00         0.00
     56.0       10.57            0.00            0.00         10.57         0.00         0.00
     51.0       10.47            0.00            0.00         10.47         0.00         0.00
     46.0       10.37            0.00            0.00         10.37         0.00         0.00
     41.0       10.25            0.00            0.00         10.25         0.00         0.00
     36.0       10.12            0.00            0.00         10.12         0.00         0.00
     31.0        9.97            0.00            0.00          9.97         0.00         0.00
     26.0        9.79            0.00            0.00          9.79         0.00         0.00
     21.0        9.58            0.00            0.00          9.58         0.00         0.00
     16.0        9.33            0.00            0.00          9.33         0.00         0.00
     11.0        8.98            0.00            0.00          8.98         0.00         0.00
      6.0        8.46            0.00            0.00          8.46         0.00         0.00
      1.0        7.07            0.00            0.00          7.07         0.00         0.00


Harvested Random Seeds after Generation of the Random Numbers:

   2107445636 Harvested seed # 1
    908466053 Harvested seed # 2


Hub-Height Simulated Turbulence Statistical Summary:

   Type of Wind        Min (m/s)   Mean (m/s)    Max (m/s)  Sigma (m/s)       TI (%)
   ----------------    ---------   ----------    ---------  -----------       ------
   Longitudinal (u)         3.48        11.67        21.29        3.064       26.245
   Lateral (v)             -6.40        -0.00         6.32        2.016       17.269
   Vertical (w)            -4.17        -0.00         4.03        1.140        9.763
   U component              3.48        11.67        21.29        3.064       26.245
   V component             -6.40        -0.00         6.32        2.016       17.269
   W component             -4.17        -0.00         4.03        1.140        9.763
   Horizontal (U&V)         3.76        11.85        21.51        3.041       25.659
   Total                    3.77        11.91        21.57        3.026       25.400

                       Min Reynolds     Mean Reynolds    Max Reynolds    Correlation
   Product             Stress (m/s)^2   Stress (m/s)^2   Stress (m/s)^2  Coefficient
   ----------------    --------------   --------------   --------------  -----------
   u'w'                    -16.152             0.287            20.526         0.082
   u'v'                    -39.748            -0.515            30.308        -0.083
   v'w'                    -13.424             0.115            14.820         0.050


   Friction Velocity (Ustar)  =      0.536 m/s
   Maximum Instantaneous TKE  =     52.281 (m/s)^2
   Maximum Instantaneous CTKE =     20.958 (m/s)^2


Grid Point Variance Summary:

   Y-coord -180.00 -175.00 -170.00 -165.00 -160.00 -155.00 -150.00 -145.00 -140.00 -135.00 -130.00 -125.00 -120.00 -115.00 -110.00 -105.00 -100.00  -95.00  -90.00  -85.00  -80.00  -75.00  -70.00  -65.00  -60.00  -55.00  -50.00  -45.00  -40.00  -35.00  -30.00  -25.00  -20.00  -15.00  -10.00   -5.00    0.00    5.00   10.00   15.00   20.00   25.00   30.00   35.00   40.00   45.00   50.00   55.00   60.00   65.00   70.00   75.00   80.00   85.00   90.00   95.00  100.00  105.00  110.00  115.00  120.00  125.00  130.00  135.00  140.00  145.00  150.00  155.00  160.00  165.00  170.00  175.00  180.00

   Height   Standard deviation at grid points for the u component:
   301.00    2.508   2.656   2.587   2.537   2.573   2.662   2.883   2.959   2.834   2.688   2.612   2.569   2.652   2.732   2.613   2.799   2.660   2.994   2.980   3.001   2.922   2.902   2.801   2.755   2.646   2.767   2.799   2.959   3.100   2.912   3.018   2.996   3.134   3.111   2.855   2.641   2.827   3.006   2.810   2.759   2.571   2.357   2.307   2.285   2.421   2.457   2.554   2.566   2.652   2.284   2.087   2.183   2.279   2.522   2.666   2.660   2.472   2.554   2.322   2.402   2.332   2.404   2.608   2.685   2.547   2.633   2.638   2.816   2.605   2.583   2.450   2.497   2.292
   296.00    2.369   2.365   2.476   2.498   2.874   3.020   2.804   2.860   2.740   2.614   2.802   2.745   2.458   2.573   2.601   2.689   2.721   2.866   2.957   2.783   2.814   2.698   2.741   2.693   2.621   2.564   2.858   2.998   3.104   3.119   3.080   3.277   3.196   3.043   2.717   2.914   2.867   2.881   2.925   2.862   2.575   2.515   2.367   2.357   2.477   2.355   2.442   2.544   2.393   2.194   2.189   2.418   2.449   2.366   2.714   2.506   2.703   2.644   2.575   2.397   2.425   2.640   2.637   2.655   2.751   2.854   2.848   2.849   2.813   2.694   2.739   2.564   2.378
   291.00    2.131   2.218   2.582   2.763   2.742   2.834   2.940   2.664   2.400   2.587   2.627   2.599   2.575   2.463   2.558   2.610   2.541   2.707   2.834   2.883   2.677   2.619   2.655   2.791   2.671   2.673   2.919   2.976   2.795   3.051   3.284   3.265   3.110   3.014   2.801   2.867   3.049   2.813   2.831   2.977   2.665   2.565   2.613   2.540   2.521   2.309   2.263   2.192   2.314   2.047   2.129   2.170   2.173   2.267   2.382   2.532   2.441   2.679   2.767   2.715   2.536   2.493   2.464   2.596   2.890   2.862   3.128   3.032   2.872   3.032   2.924   2.609   2.475
   286.00    2.347   2.385   2.562   2.650   2.723   2.672   2.639   2.707   2.492   2.342   2.432   2.533   2.419   2.516   2.478   2.396   2.635   2.706   2.788   2.820   2.732   2.678   2.889   2.823   2.864   2.855   3.013   2.953   2.947   2.927   3.252   3.212   3.055   2.793   2.896   2.944   3.092   3.030   2.925   2.888   2.765   2.708   2.639   2.418   2.405   2.270   2.307   2.071   2.224   1.910   2.075   2.032   2.013   2.137   2.182   2.256   2.416   2.499   2.526   2.618   2.656   2.602   2.618   2.635   2.574   2.855   3.104   3.140   2.836   2.833   2.787   2.757   2.600
   281.00    2.532   2.691   2.538   2.607   2.497   2.508   2.377   2.491   2.398   2.492   2.217   2.402   2.352   2.636   2.642   2.580   2.613   2.558   2.545   2.750   2.812   2.571   2.782   2.873   2.965   2.980   3.023   2.935   3.075   3.247   3.249   3.435   3.225   3.140   2.951   2.800   3.087   3.184   3.075   3.147   2.941   2.702   2.465   2.565   2.240   2.347   2.346   2.322   2.021   1.952   1.972   2.000   2.069   2.206   2.267   2.170   2.424   2.477   2.380   2.533   2.526   2.588   2.549   2.642   2.594   2.839   2.881   2.958   2.949   2.732   2.570   2.586   2.699
   276.00    2.854   2.731   2.598   2.559   2.356   2.207   2.163   2.385   2.377   2.398   2.261   2.443   2.478   2.557   2.640   2.611   2.611   2.370   2.557   2.731   2.724   2.575   2.749   2.766   2.953   2.895   2.906   3.110   2.920   3.207   3.217   3.233   3.305   3.258   3.108   3.056   3.022   3.271   3.017   3.047   3.048   3.018   2.752   2.567   2.464   2.151   2.356   2.348   2.163   1.990   2.084   2.129   2.169   2.136   2.109   2.284   2.424   2.409   2.476   2.386   2.547   2.725   2.631   2.461   2.629   2.799   2.806   2.800   2.770   2.792   2.739   2.864   2.568
   271.00    2.660   2.658   2.642   2.771   2.372   2.429   2.259   2.336   2.468   2.344   2.372   2.645   2.507   2.577   2.772   2.833   2.769   2.550   2.588   2.659   2.880   2.627   2.777   2.709   2.837   3.073   2.935   3.127   2.990   3.229   3.092   3.184   3.105   3.223   3.288   3.159   3.018   3.087   3.170   3.159   3.159   3.020   2.890   2.723   2.616   2.399   2.343   2.359   2.232   2.266   2.232   2.154   2.280   2.227   2.338   2.448   2.447   2.370   2.340   2.371   2.284   2.632   2.543   2.530   2.711   2.823   2.946   2.805   2.584   2.727   2.601   2.754   2.776
   266.00    2.869   2.690   2.599   2.595   2.583   2.396   2.412   2.405   2.342   2.390   2.489   2.718   2.586   2.587   2.906   2.938   2.902   2.598   2.384   2.422   2.675   2.793   2.798   2.915   2.934   3.128   3.189   3.021   2.953   3.190   3.156   3.084   3.314   3.291   3.273   3.346   2.965   2.916   2.988   2.918   2.766   3.046   2.763   2.802   2.759   2.619   2.512   2.240   2.135   2.239   2.285   2.110   2.029   2.237   2.396   2.430   2.511   2.330   2.463   2.428   2.358   2.720   2.689   2.523   2.673   2.929   2.856   2.686   2.770   2.689   2.606   2.606   2.592
   261.00    2.762   2.784   2.686   2.694   2.627   2.457   2.437   2.503   2.431   2.558   2.765   2.685   2.703   2.805   2.699   2.846   2.853   2.687   2.507   2.411   2.529   2.728   2.911   2.951   3.126   3.222   3.156   2.939   3.117   3.174   3.236   3.167   3.353   3.453   3.319   3.319   3.166   3.014   2.960   2.966   2.843   2.984   2.966   2.876   2.656   2.724   2.528   2.327   2.412   2.219   2.206   2.121   2.021   2.180   2.397   2.473   2.423   2.258   2.344   2.419   2.514   2.647   2.492   2.612   2.680   2.812   3.026   2.810   2.634   2.789   2.786   2.435   2.270
   256.00    2.879   2.731   2.698   2.558   2.700   2.584   2.562   2.529   2.616   2.515   2.667   2.696   2.512   2.728   2.909   2.859   2.709   2.595   2.614   2.521   2.554   2.801   2.944   2.951   3.228   3.141   3.222   3.129   3.130   2.994   2.969   3.305   3.485   3.585   3.430   3.132   3.082   3.106   2.966   2.900   2.813   2.791   2.872   2.992   2.856   2.696   2.719   2.438   2.407   2.312   2.402   2.289   2.304   2.448   2.258   2.361   2.317   2.276   2.350   2.224   2.339   2.493   2.446   2.376   2.542   2.777   2.830   2.839   2.683   2.853   2.740   2.590   2.228
   251.00    2.765   2.662   2.641   2.735   2.736   2.534   2.531   2.590   2.390   2.518   2.680   2.790   2.732   2.564   2.805   2.890   2.641   2.638   2.800   2.552   2.621   3.044   2.991   2.945   3.047   3.218   3.098   3.078   3.021   2.982   3.401   3.378   3.267   3.472   3.649   3.149   2.871   2.892   2.993   2.980   2.735   2.960   2.790   2.854   2.942   2.690   2.507   2.534   2.643   2.609   2.489   2.586   2.626   2.492   2.444   2.404   2.487   2.417   2.279   2.216   2.536   2.506   2.403   2.652   2.666   2.660   2.649   2.663   2.683   2.835   2.673   2.534   2.303
   246.00    2.610   2.732   2.670   2.776   2.583   2.589   2.474   2.565   2.671   2.690   2.451   2.628   2.789   2.647   2.749   2.908   2.842   2.717   2.664   2.546   2.685   3.017   2.972   2.862   3.024   3.070   2.939   2.937   3.015   3.139   3.558   3.368   3.369   3.551   3.641   3.230   2.886   2.925   2.929   2.809   2.913   3.077   2.799   2.975   2.856   2.728   2.510   2.448   2.455   2.703   2.541   2.573   2.644   2.754   2.584   2.492   2.431   2.396   2.391   2.384   2.450   2.524   2.505   2.528   2.728   2.644   2.648   2.345   2.632   2.714   2.634   2.733   2.534
   241.00    2.644   2.674   2.646   2.623   2.402   2.449   2.535   2.567   2.568   2.594   2.322   2.354   2.418   2.635   2.665   2.759   2.833   2.738   2.634   2.549   2.470   2.737   2.924   2.611   2.744   2.924   2.941   3.143   3.139   3.193   3.376   3.532   3.434   3.421   3.189   3.396   3.294   3.131   3.010   2.874   2.910   2.975   3.021   2.984   2.845   2.739   2.534   2.677   2.728   2.755   2.747   2.650   2.760   2.679   2.618   2.497   2.590   2.586   2.383   2.256   2.430   2.360   2.413   2.420   2.634   2.587   2.603   2.326   2.675   2.739   2.801   2.554   2.465
   236.00    2.697   2.490   2.745   2.681   2.441   2.517   2.521   2.440   2.488   2.560   2.329   2.478   2.329   2.717   2.906   2.896   2.725   2.653   2.684   2.519   2.586   2.868   2.881   2.568   2.762   2.938   2.884   2.919   3.186   3.096   3.093   3.277   2.919   3.194   3.166   3.389   3.180   3.175   3.202   2.987   2.879   2.905   3.055   2.784   2.763   2.847   2.712   2.550   2.583   2.797   2.816   2.604   2.729   2.586   2.573   2.536   2.618   2.685   2.585   2.361   2.371   2.493   2.541   2.606   2.583   2.522   2.553   2.318   2.566   2.617   2.622   2.608   2.473
   231.00    2.550   2.519   2.532   2.721   2.562   2.389   2.375   2.378   2.462   2.434   2.256   2.266   2.340   2.637   2.829   2.805   2.826   2.716   2.737   2.713   2.636   2.782   2.774   2.659   2.619   2.829   2.777   2.954   2.927   2.838   2.979   3.111   2.962   2.960   3.261   3.280   3.104   3.104   3.162   2.761   2.702   2.808   3.050   2.807   2.882   2.848   2.603   2.687   2.552   2.536   2.524   2.507   2.555   2.601   2.753   2.678   2.771   2.891   2.556   2.579   2.590   2.466   2.501   2.630   2.601   2.410   2.317   2.384   2.576   2.502   2.499   2.365   2.155
   226.00    2.435   2.550   2.514   2.551   2.520   2.551   2.582   2.541   2.519   2.275   2.305   2.496   2.498   2.666   2.677   2.467   2.729   2.611   2.495   2.674   2.870   2.800   2.742   2.911   2.559   2.619   2.649   2.566   2.786   2.923   3.058   2.815   2.959   3.243   3.168   3.060   3.206   2.973   3.009   2.891   2.795   2.729   3.004   2.794   2.867   2.746   2.847   2.655   2.509   2.446   2.348   2.169   2.261   2.475   2.760   2.607   2.621   2.760   2.768   2.607   2.637   2.470   2.466   2.637   2.512   2.427   2.403   2.469   2.544   2.371   2.319   2.331   2.105
   221.00    2.283   2.373   2.363   2.534   2.545   2.512   2.567   2.446   2.491   2.635   2.603   2.379   2.502   2.602   2.534   2.387   2.561   2.631   2.399   2.596   2.740   2.869   2.910   2.780   2.798   2.773   2.492   2.387   2.569   2.738   2.977   2.820   2.983   3.014   2.990   2.655   3.032   3.006   2.998   3.062   2.951   2.873   3.021   2.880   2.834   2.554   2.614   2.479   2.511   2.537   2.247   2.048   2.365   2.511   2.583   2.629   2.622   2.691   2.713   2.675   2.753   2.617   2.691   2.611   2.528   2.605   2.472   2.475   2.519   2.341   2.278   2.233   1.978
   216.00    2.380   2.388   2.414   2.309   2.360   2.580   2.707   2.820   2.820   2.730   2.612   2.474   2.531   2.585   2.446   2.475   2.465   2.481   2.502   2.548   2.632   2.731   2.779   2.708   2.687   2.657   2.566   2.455   2.160   2.459   2.650   2.807   2.721   2.854   2.773   2.764   3.082   3.110   3.258   3.110   3.097   3.109   2.941   3.022   2.728   2.577   2.287   2.282   2.430   2.364   2.366   2.335   2.348   2.417   2.507   2.590   2.636   2.585   2.697   2.577   2.645   2.593   2.475   2.492   2.553   2.622   2.361   2.480   2.454   2.379   2.409   2.315   2.176
   211.00    2.492   2.422   2.388   2.412   2.610   2.513   2.611   2.632   2.785   2.694   2.775   2.725   2.779   2.491   2.501   2.526   2.580   2.783   2.797   2.784   2.369   2.563   2.606   2.568   2.384   2.375   2.407   2.480   2.346   2.402   2.464   2.586   2.561   2.893   2.676   2.814   2.996   3.021   3.223   3.170   3.066   3.010   2.827   2.754   2.722   2.610   2.672   2.404   2.349   2.396   2.410   2.539   2.438   2.436   2.552   2.575   2.431   2.725   2.659   2.662   2.572   2.772   2.536   2.646   2.672   2.609   2.489   2.259   2.378   2.408   2.463   2.373   2.275
   206.00    2.546   2.606   2.460   2.267   2.437   2.431   2.590   2.593   2.682   2.784   2.940   2.920   2.713   2.551   2.544   2.546   2.747   2.716   2.739   2.625   2.432   2.351   2.466   2.323   2.392   2.371   2.616   2.656   2.369   2.366   2.392   2.395   2.741   2.796   2.962   2.910   2.832   3.097   3.197   2.894   2.916   2.774   2.705   2.862   2.747   2.740   2.605   2.533   2.631   2.712   2.655   2.524   2.604   2.733   2.901   2.688   2.688   2.635   2.513   2.572   2.536   2.733   2.576   2.662   2.643   2.510   2.444   2.500   2.334   2.399   2.445   2.297   2.349
   201.00    2.432   2.525   2.340   2.324   2.520   2.543   2.629   2.738   2.741   2.848   2.752   2.633   2.764   2.922   2.797   2.646   2.725   2.636   2.642   2.600   2.351   2.188   2.289   2.296   2.395   2.564   2.541   2.581   2.582   2.447   2.621   2.555   2.837   2.912   2.687   2.901   2.845   2.929   3.007   3.063   2.896   2.931   2.858   2.823   2.736   2.594   2.467   2.424   2.515   2.705   2.700   2.580   2.699   2.753   2.643   2.582   2.590   2.524   2.476   2.507   2.394   2.531   2.491   2.580   2.631   2.704   2.453   2.554   2.375   2.440   2.242   2.217   2.001
   196.00    2.422   2.420   2.470   2.561   2.644   2.619   2.458   2.646   2.446   2.755   2.838   2.715   2.858   2.947   2.700   2.755   2.787   2.784   2.694   2.469   2.434   2.424   2.318   2.491   2.581   2.667   2.653   2.534   2.595   2.601   2.659   2.822   2.705   2.634   2.673   2.917   3.053   2.787   2.905   2.940   3.225   2.987   2.907   2.774   2.867   2.612   2.535   2.471   2.439   2.711   2.718   2.443   2.644   2.655   2.533   2.503   2.412   2.492   2.381   2.357   2.385   2.324   2.318   2.465   2.486   2.460   2.623   2.614   2.443   2.470   2.437   2.270   2.086
   191.00    2.525   2.462   2.777   2.644   2.606   2.657   2.579   2.455   2.685   2.694   2.881   2.845   3.003   2.666   2.763   2.906   2.898   2.702   2.815   2.652   2.578   2.612   2.544   2.564   2.652   2.702   2.627   2.695   2.427   2.424   2.675   2.619   2.847   2.910   2.717   2.691   2.865   2.793   2.858   3.111   3.199   3.092   2.940   2.870   2.926   2.725   2.631   2.591   2.388   2.679   2.512   2.462   2.439   2.570   2.517   2.564   2.310   2.350   2.304   2.345   2.186   2.188   2.226   2.288   2.275   2.431   2.589   2.654   2.582   2.587   2.612   2.322   2.237
   186.00    2.517   2.661   2.679   2.694   2.561   2.580   2.592   2.578   2.749   2.693   2.784   2.990   2.895   2.820   2.989   2.924   3.039   2.925   2.933   2.796   2.589   2.748   2.748   2.552   2.568   2.664   2.662   2.574   2.637   2.689   2.612   2.475   2.750   2.955   2.806   2.683   2.660   2.994   2.801   2.987   2.910   3.028   3.065   2.921   2.922   2.767   2.676   2.652   2.731   2.623   2.681   2.727   2.545   2.636   2.520   2.477   2.393   2.311   2.262   2.212   2.213   2.174   2.166   2.175   2.342   2.423   2.644   2.681   2.498   2.441   2.495   2.271   2.420
   181.00    2.698   2.669   2.779   2.637   2.661   2.439   2.478   2.546   2.776   2.612   2.532   2.728   2.763   2.877   3.042   3.150   3.166   3.158   2.871   2.718   2.689   2.573   2.547   2.528   2.602   2.676   2.626   2.449   2.641   2.668   2.881   2.759   2.788   2.969   2.913   2.877   2.722   3.018   2.926   2.959   2.898   2.959   3.053   2.793   2.703   2.693   2.494   2.561   2.694   2.822   2.702   2.612   2.707   2.645   2.476   2.590   2.382   2.265   2.157   2.221   2.121   2.238   2.284   2.139   2.120   2.356   2.516   2.413   2.500   2.275   2.189   2.283   2.401
   176.00    2.659   2.578   2.528   2.406   2.582   2.439   2.465   2.590   2.571   2.722   2.748   2.623   2.662   2.743   2.821   2.901   2.966   2.823   2.517   2.660   2.501   2.386   2.508   2.550   2.728   2.846   2.561   2.564   2.519   2.623   2.605   2.758   2.943   2.803   3.048   2.814   3.005   2.923   3.036   2.646   2.788   2.844   2.900   2.646   2.546   2.329   2.571   2.555   2.619   2.690   2.640   2.598   2.437   2.416   2.414   2.475   2.336   2.037   2.148   2.141   2.132   2.107   2.263   2.142   2.247   2.303   2.356   2.489   2.409   2.283   2.172   2.164   2.435
   171.00    2.555   2.567   2.625   2.410   2.423   2.588   2.707   2.653   2.638   2.620   2.659   2.701   2.676   2.621   2.621   2.784   2.765   2.581   2.327   2.556   2.455   2.434   2.553   2.644   2.854   2.814   2.632   2.421   2.463   2.310   2.535   2.686   2.810   2.822   2.986   3.035   2.856   2.988   2.991   2.777   2.753   2.779   2.810   2.549   2.522   2.727   2.770   2.539   2.510   2.647   2.717   2.638   2.465   2.414   2.360   2.165   2.285   2.059   2.100   2.146   2.231   2.114   2.149   2.254   2.372   2.259   2.256   2.219   2.195   2.109   1.929   2.035   2.207
   166.00    2.635   2.460   2.501   2.569   2.594   2.703   2.565   2.489   2.612   2.655   2.804   2.773   2.714   2.440   2.783   2.735   2.675   2.238   2.323   2.507   2.310   2.512   2.768   2.836   2.649   2.555   2.643   2.444   2.580   2.507   2.572   2.595   2.396   2.580   2.726   2.894   2.823   2.780   2.905   2.761   2.813   2.868   2.756   2.613   2.746   2.796   2.820   2.791   2.755   2.841   2.540   2.444   2.339   2.464   2.338   2.283   2.265   2.253   2.148   2.327   2.270   2.199   2.190   2.282   2.385   2.252   2.108   2.002   2.159   2.041   2.056   1.968   2.135
   161.00    2.681   2.558   2.518   2.425   2.410   2.561   2.309   2.409   2.532   2.528   2.782   2.620   2.663   2.737   2.799   2.788   2.623   2.401   2.593   2.632   2.513   2.627   2.818   2.758   2.423   2.549   2.588   2.583   2.520   2.298   2.423   2.543   2.378   2.506   2.741   2.825   2.738   2.896   2.693   2.553   2.681   2.511   2.641   2.760   2.720   2.798   2.786   2.737   2.798   2.763   2.686   2.433   2.514   2.476   2.629   2.497   2.405   2.506   2.444   2.425   2.518   2.485   2.340   2.266   2.205   2.113   2.139   2.257   2.168   2.228   2.128   2.101   2.047
   156.00    2.702   2.426   2.319   2.580   2.416   2.233   2.179   2.196   2.431   2.415   2.656   2.729   2.493   2.595   2.573   2.754   2.429   2.402   2.572   2.407   2.547   2.571   2.690   2.706   2.395   2.370   2.601   2.601   2.452   2.484   2.386   2.469   2.384   2.670   2.700   2.711   2.837   2.826   2.740   2.812   2.846   2.827   2.412   2.536   2.721   2.766   2.664   2.661   2.625   2.641   2.520   2.401   2.420   2.467   2.623   2.808   2.723   2.672   2.336   2.386   2.706   2.616   2.313   2.410   2.251   2.231   2.234   2.159   2.306   2.317   2.201   2.100   2.058
   151.00    2.601   2.293   2.431   2.420   2.345   2.034   1.913   2.148   2.421   2.443   2.471   2.713   2.653   2.601   2.631   2.563   2.503   2.474   2.531   2.416   2.351   2.623   2.719   2.650   2.461   2.527   2.437   2.502   2.340   2.418   2.454   2.517   2.568   2.743   2.854   2.774   3.064   2.944   2.730   2.731   2.845   2.558   2.506   2.614   2.650   2.509   2.499   2.506   2.396   2.637   2.542   2.540   2.540   2.478   2.718   2.883   2.976   2.656   2.433   2.740   2.782   2.809   2.659   2.457   2.295   2.344   2.230   2.181   2.305   2.311   2.247   2.135   2.066
   146.00    2.430   2.361   2.573   2.469   2.329   2.393   2.184   2.230   2.226   2.393   2.496   2.607   2.583   2.628   2.297   2.479   2.317   2.504   2.623   2.600   2.317   2.455   2.384   2.539   2.571   2.500   2.416   2.276   2.422   2.530   2.482   2.620   2.671   2.768   2.959   3.114   3.135   2.918   2.669   2.729   2.602   2.493   2.582   2.682   2.355   2.351   2.326   2.422   2.423   2.553   2.566   2.664   2.560   2.739   2.962   2.937   3.089   2.846   2.730   2.784   2.927   2.809   2.790   2.830   2.575   2.429   2.434   2.338   2.315   2.318   2.267   2.216   2.161
   141.00    2.371   2.557   2.512   2.518   2.543   2.295   2.121   2.178   2.300   2.386   2.488   2.394   2.496   2.444   2.321   2.544   2.280   2.460   2.575   2.563   2.402   2.278   2.502   2.469   2.535   2.421   2.457   2.449   2.569   2.683   2.734   2.569   2.621   2.687   2.938   3.065   3.072   2.639   2.608   2.553   2.518   2.413   2.381   2.514   2.629   2.384   2.374   2.368   2.324   2.405   2.527   2.717   2.745   2.799   2.890   3.008   3.097   2.747   2.933   2.775   2.793   2.747   2.915   2.811   2.873   2.585   2.518   2.200   2.183   2.180   2.287   2.307   2.319
   136.00    2.609   2.493   2.443   2.640   2.438   2.411   2.399   2.205   2.424   2.382   2.346   2.350   2.498   2.312   2.258   2.363   2.435   2.413   2.515   2.585   2.550   2.312   2.412   2.423   2.445   2.444   2.487   2.449   2.420   2.564   2.576   2.588   2.518   2.567   2.686   2.769   2.732   2.507   2.589   2.423   2.435   2.471   2.451   2.507   2.546   2.399   2.295   2.355   2.471   2.543   2.594   2.616   2.380   2.756   2.632   2.954   2.971   2.747   2.805   2.829   2.731   2.775   2.954   2.844   2.779   2.658   2.691   2.376   2.167   2.178   2.327   2.363   2.340
   131.00    2.596   2.642   2.474   2.430   2.494   2.459   2.351   2.391   2.412   2.254   2.347   2.198   2.424   2.339   2.354   2.423   2.509   2.382   2.367   2.385   2.280   2.297   2.279   2.392   2.530   2.383   2.459   2.381   2.399   2.338   2.352   2.448   2.433   2.441   2.474   2.479   2.289   2.413   2.560   2.466   2.501   2.558   2.564   2.590   2.536   2.432   2.364   2.407   2.579   2.713   2.643   2.716   2.528   2.606   2.687   2.754   2.734   2.852   2.617   2.719   2.692   2.948   2.879   2.989   2.716   2.751   2.737   2.488   2.274   2.131   2.289   2.374   2.191
   126.00    2.394   2.484   2.509   2.559   2.393   2.350   2.220   2.437   2.408   2.250   2.353   2.337   2.417   2.481   2.411   2.415   2.356   2.132   2.084   2.193   2.188   2.179   2.212   2.302   2.271   2.505   2.573   2.364   2.279   2.211   2.148   2.274   2.521   2.364   2.468   2.333   2.182   2.245   2.407   2.411   2.391   2.396   2.477   2.627   2.614   2.640   2.672   2.726   2.660   2.795   2.752   2.799   2.681   2.535   2.612   2.721   2.841   2.643   2.672   2.847   2.722   2.800   2.674   2.730   2.835   2.904   2.837   2.427   2.221   2.214   2.286   2.329   2.277
   121.00    2.242   2.350   2.360   2.450   2.488   2.422   2.347   2.423   2.309   2.182   2.270   2.447   2.453   2.325   2.243   2.238   2.239   2.224   2.276   2.143   2.136   2.065   2.019   2.118   2.156   2.186   2.240   2.168   2.228   2.034   2.113   2.096   2.295   2.185   2.321   2.284   2.297   2.099   2.074   2.267   2.327   2.372   2.278   2.446   2.390   2.578   2.690   2.794   2.716   2.852   2.800   2.687   2.846   2.881   2.531   2.739   2.685   2.575   2.810   2.645   2.498   2.693   2.619   2.511   2.762   2.727   2.469   2.550   2.385   2.326   2.293   2.331   2.147
   116.00    2.321   2.327   2.463   2.423   2.259   2.391   2.400   2.431   2.425   2.313   2.422   2.368   2.413   2.399   2.263   2.228   2.174   2.152   2.103   2.113   2.037   2.039   2.011   1.938   2.002   1.991   2.043   2.010   1.981   1.908   2.128   2.233   2.125   2.267   2.213   2.190   2.367   2.225   2.370   2.387   2.281   2.317   2.306   2.358   2.436   2.448   2.481   2.652   2.705   2.746   2.663   2.773   2.783   2.910   2.621   2.672   2.861   2.829   2.906   2.658   2.611   2.623   2.722   2.628   2.701   2.559   2.475   2.554   2.586   2.321   2.326   2.219   2.240
   111.00    2.437   2.575   2.652   2.613   2.410   2.465   2.428   2.631   2.505   2.312   2.197   2.288   2.205   2.066   2.152   2.165   2.004   2.003   2.057   1.965   1.974   1.953   2.000   1.940   1.895   1.909   1.801   1.874   1.888   1.928   2.001   2.199   2.215   2.237   2.245   2.277   2.219   2.200   2.225   2.456   2.280   2.422   2.245   2.218   2.345   2.444   2.560   2.723   2.695   2.757   2.650   2.814   2.978   3.035   2.870   2.866   2.895   2.895   2.739   2.711   2.521   2.529   2.666   2.688   2.452   2.386   2.438   2.589   2.727   2.473   2.403   2.390   2.328
   106.00    2.366   2.542   2.507   2.743   2.630   2.393   2.447   2.467   2.461   2.136   2.231   2.153   2.005   2.123   2.094   2.119   1.899   2.003   2.163   1.780   1.864   1.955   2.072   2.092   2.003   1.943   1.918   1.846   1.893   1.795   2.014   2.123   2.241   2.208   2.241   2.245   2.088   2.134   2.206   2.264   2.311   2.207   2.229   2.341   2.205   2.388   2.527   2.747   2.728   2.738   2.642   2.781   2.967   2.833   2.874   2.815   2.967   2.845   2.760   2.751   2.642   2.656   2.569   2.632   2.535   2.486   2.479   2.580   2.685   2.700   2.648   2.635   2.410
   101.00    2.345   2.321   2.350   2.528   2.649   2.338   2.389   2.324   2.212   2.260   2.283   2.200   2.033   2.101   2.028   1.965   1.977   1.958   2.047   2.004   1.934   1.993   2.086   2.127   2.120   2.049   1.985   1.926   1.781   1.771   1.915   2.104   2.089   2.252   2.288   2.275   2.022   2.012   2.111   2.126   2.196   2.175   2.177   2.101   2.320   2.405   2.536   2.712   2.723   2.778   2.847   2.892   2.761   2.728   2.637   2.534   2.739   2.825   2.743   2.800   2.824   2.744   2.578   2.684   2.621   2.641   2.544   2.580   2.562   2.583   2.697   2.771   2.449
    96.00    2.186   2.259   2.180   2.408   2.576   2.428   2.318   2.273   2.140   2.232   2.111   2.062   2.019   1.991   1.958   2.151   2.058   2.037   1.897   2.066   2.000   2.132   2.167   2.203   2.093   2.222   2.197   1.972   1.816   1.826   1.902   1.941   2.044   2.201   2.186   2.113   2.136   2.089   2.157   2.277   2.314   2.259   2.184   2.127   2.176   2.297   2.639   2.734   2.480   2.695   2.790   2.740   2.772   2.649   2.739   2.481   2.740   2.789   2.738   2.881   2.775   2.695   2.563   2.364   2.710   2.732   2.601   2.389   2.494   2.721   2.572   2.507   2.409
    91.00    2.235   2.274   2.164   2.467   2.524   2.409   2.366   2.179   2.172   2.082   2.042   1.974   1.916   1.951   2.018   2.018   2.016   2.013   2.012   2.026   2.141   2.269   2.300   2.389   2.131   2.107   2.144   2.011   1.787   1.846   1.892   1.843   1.927   2.029   1.997   2.095   2.099   2.161   2.230   2.504   2.469   2.331   2.332   2.333   2.496   2.625   2.702   2.693   2.667   2.633   2.796   2.721   2.774   2.813   2.657   2.436   2.855   2.843   3.037   2.892   2.831   2.657   2.760   2.544   2.597   2.663   2.523   2.428   2.610   2.614   2.491   2.329   2.328
    86.00    2.210   2.142   2.179   2.350   2.478   2.462   2.576   2.514   2.390   2.132   2.077   2.046   2.032   2.077   2.163   2.187   2.085   2.208   2.245   2.138   2.158   2.271   2.258   2.236   2.088   1.987   1.849   1.947   1.945   1.892   1.946   1.750   1.746   1.720   1.827   1.912   2.073   2.095   2.248   2.375   2.373   2.232   2.295   2.164   2.285   2.643   2.625   2.653   2.468   2.604   2.668   2.610   2.533   2.687   2.519   2.493   2.692   2.837   2.865   2.958   2.776   2.604   2.738   2.676   2.700   2.498   2.659   2.700   2.677   2.351   2.333   2.169   2.316
    81.00    2.413   2.256   2.126   2.343   2.355   2.513   2.552   2.433   2.439   2.179   1.964   2.106   2.189   2.119   2.127   2.098   2.052   2.112   2.064   2.059   2.133   2.095   2.030   2.046   2.034   1.873   1.884   1.857   2.114   2.067   1.857   1.729   1.725   1.683   1.844   1.908   2.134   2.267   2.395   2.366   2.401   2.432   2.326   2.288   2.363   2.562   2.538   2.655   2.509   2.650   2.683   2.721   2.344   2.469   2.516   2.508   2.624   2.697   2.928   2.727   2.569   2.670   2.631   2.767   2.609   2.610   2.752   2.795   2.459   2.366   2.462   2.267   2.070
    76.00    2.581   2.340   2.434   2.366   2.450   2.503   2.452   2.498   2.275   2.238   2.102   1.937   2.028   2.285   2.134   1.927   1.968   1.901   1.981   2.113   2.110   1.946   1.920   1.973   1.772   1.869   1.981   1.970   2.048   1.953   1.796   1.779   1.736   1.615   1.786   1.846   2.002   2.332   2.509   2.415   2.683   2.627   2.377   2.405   2.399   2.339   2.595   2.604   2.634   2.549   2.489   2.420   2.388   2.408   2.546   2.428   2.494   2.551   2.752   2.725   2.784   2.807   2.873   2.784   2.615   2.706   2.825   2.814   2.519   2.448   2.455   2.240   2.045
    71.00    2.478   2.239   2.337   2.304   2.625   2.345   2.507   2.324   2.357   2.250   2.170   2.105   2.213   2.336   2.174   2.126   1.949   2.042   1.916   1.943   1.912   1.868   1.821   1.864   1.690   1.702   1.723   1.815   1.944   1.929   1.995   1.888   1.716   1.878   1.896   2.072   2.306   2.261   2.381   2.562   2.798   2.715   2.657   2.610   2.525   2.419   2.628   2.575   2.616   2.421   2.394   2.588   2.538   2.599   2.451   2.289   2.420   2.698   2.994   2.852   2.763   2.791   2.881   2.672   2.726   2.643   2.714   2.873   2.557   2.374   2.147   2.083   1.953
    66.00    2.237   2.187   2.408   2.504   2.588   2.324   2.402   2.311   2.342   2.226   2.261   2.164   2.128   2.289   2.264   2.208   2.117   1.951   1.983   1.946   1.784   1.839   1.742   1.873   1.813   1.705   1.751   1.919   1.913   1.944   2.015   1.884   1.884   1.965   1.868   2.147   2.263   2.217   2.323   2.534   2.806   2.840   2.602   2.409   2.531   2.670   2.612   2.293   2.459   2.422   2.443   2.488   2.446   2.426   2.473   2.347   2.502   2.718   2.896   2.904   2.874   2.757   2.707   2.538   2.625   2.597   2.748   2.750   2.671   2.293   2.114   1.986   2.002
    61.00    2.320   2.155   2.365   2.398   2.302   2.414   2.290   2.467   2.336   2.238   2.252   2.132   2.161   2.225   2.319   2.117   2.122   2.010   2.062   2.023   1.807   1.881   1.859   1.955   1.891   1.855   1.851   1.807   1.712   1.820   1.902   1.708   1.801   2.019   2.058   2.115   2.221   2.197   2.429   2.382   2.615   2.796   2.472   2.432   2.566   2.739   2.707   2.510   2.488   2.463   2.385   2.457   2.469   2.367   2.334   2.377   2.273   2.439   2.676   2.654   2.669   2.765   2.582   2.396   2.490   2.644   2.795   2.850   2.622   2.402   2.176   2.237   2.036
    56.00    2.285   2.440   2.525   2.583   2.436   2.486   2.372   2.318   2.201   2.042   2.150   2.041   2.219   2.437   2.352   2.216   1.983   2.041   2.034   1.944   1.972   2.013   1.974   1.856   2.022   2.000   1.786   1.815   1.853   1.837   1.862   1.801   1.759   1.885   1.976   2.098   2.127   2.105   2.364   2.524   2.668   2.573   2.662   2.479   2.564   2.523   2.609   2.629   2.363   2.226   2.285   2.318   2.389   2.337   2.325   2.282   2.322   2.562   2.598   2.717   2.609   2.602   2.595   2.534   2.353   2.625   2.616   2.752   2.575   2.389   2.409   2.302   2.156
    51.00    2.357   2.402   2.613   2.618   2.363   2.438   2.299   2.113   2.080   2.021   2.098   2.150   2.210   2.389   2.169   2.049   1.984   1.984   1.857   1.851   1.961   2.070   2.068   2.117   2.134   2.018   1.837   1.777   1.942   1.869   1.676   1.746   1.769   1.813   1.936   2.068   2.157   2.151   2.307   2.377   2.530   2.429   2.480   2.408   2.576   2.380   2.455   2.506   2.465   2.347   2.328   2.316   2.500   2.464   2.581   2.443   2.560   2.647   2.531   2.589   2.578   2.314   2.511   2.600   2.460   2.461   2.551   2.651   2.503   2.372   2.271   2.150   2.057
    46.00    2.400   2.502   2.659   2.509   2.405   2.354   2.321   2.146   2.041   1.993   2.109   2.143   2.301   2.334   2.046   2.028   1.937   2.025   1.868   1.892   1.860   1.896   1.929   2.013   2.076   2.057   1.926   2.045   2.057   1.796   1.641   1.737   1.819   1.844   1.857   1.986   2.070   2.163   2.174   2.365   2.336   2.224   2.376   2.367   2.433   2.461   2.420   2.371   2.392   2.313   2.274   2.357   2.416   2.491   2.725   2.711   2.585   2.555   2.574   2.504   2.446   2.384   2.515   2.672   2.565   2.478   2.476   2.469   2.190   2.203   1.950   2.060   2.050
    41.00    2.492   2.501   2.464   2.602   2.472   2.419   2.369   2.233   2.052   2.130   2.107   2.149   2.378   2.212   2.109   2.178   2.100   1.930   2.074   2.128   2.149   2.048   1.927   2.011   2.075   2.077   2.165   2.159   2.240   1.999   1.878   1.959   1.841   1.942   1.910   2.019   2.092   2.166   2.295   2.391   2.216   2.313   2.278   2.288   2.328   2.438   2.306   2.406   2.432   2.331   2.464   2.427   2.349   2.451   2.569   2.686   2.535   2.471   2.678   2.458   2.332   2.284   2.412   2.614   2.370   2.448   2.239   2.293   2.233   2.111   1.742   1.854   1.927
    36.00    2.401   2.366   2.479   2.516   2.438   2.389   2.452   2.290   2.280   2.115   2.040   2.208   2.311   2.306   2.127   2.135   2.007   2.002   2.068   2.215   2.274   1.965   2.006   2.004   2.150   2.164   2.281   2.182   2.094   2.135   2.200   2.013   1.995   1.926   1.830   1.925   2.030   2.138   2.236   2.378   2.565   2.352   2.312   2.402   2.461   2.240   2.132   2.214   2.381   2.376   2.318   2.286   2.352   2.471   2.627   2.559   2.437   2.484   2.607   2.320   2.494   2.578   2.614   2.513   2.550   2.410   2.367   2.261   2.163   2.051   1.922   1.857   2.008
    31.00    2.464   2.611   2.721   2.447   2.470   2.389   2.507   2.364   2.318   2.301   2.208   2.320   2.258   2.409   2.283   2.244   2.075   2.248   2.327   2.240   2.191   2.116   2.195   2.172   2.093   2.094   2.165   2.194   2.284   2.286   2.356   2.200   2.153   1.979   2.018   2.000   2.039   2.180   2.082   2.297   2.300   2.195   2.297   2.423   2.443   2.272   2.179   2.230   2.276   2.254   2.333   2.266   2.218   2.429   2.667   2.613   2.338   2.432   2.573   2.525   2.418   2.467   2.330   2.443   2.227   2.435   2.252   2.276   2.228   2.152   2.217   2.047   1.985
    26.00    2.638   2.541   2.554   2.577   2.490   2.552   2.673   2.479   2.469   2.454   2.334   2.419   2.322   2.440   2.311   2.138   2.141   2.152   2.267   2.371   2.093   2.080   2.092   2.209   2.307   2.145   2.359   2.464   2.402   2.433   2.543   2.179   2.345   2.233   2.057   1.926   1.997   2.064   2.035   2.238   2.194   2.131   2.226   2.451   2.510   2.442   2.424   2.292   2.213   2.264   2.274   2.325   2.272   2.478   2.473   2.455   2.602   2.335   2.495   2.354   2.370   2.509   2.416   2.439   2.380   2.405   2.336   2.382   2.389   2.271   2.383   2.157   2.001
    21.00    2.610   2.668   2.535   2.390   2.300   2.478   2.662   2.526   2.524   2.417   2.393   2.402   2.329   2.314   2.288   2.188   2.050   1.977   2.128   2.082   2.052   2.080   2.049   2.096   2.140   2.271   2.435   2.515   2.620   2.514   2.463   2.285   2.326   2.226   2.089   2.206   2.074   1.977   2.118   2.138   2.210   2.043   2.149   2.460   2.382   2.494   2.542   2.278   2.198   2.099   2.184   2.291   2.341   2.135   2.340   2.341   2.479   2.399   2.371   2.323   2.483   2.486   2.561   2.343   2.438   2.366   2.380   2.357   2.288   2.477   2.445   2.282   2.174
    16.00    2.400   2.366   2.347   2.165   2.301   2.501   2.544   2.537   2.448   2.364   2.317   2.408   2.258   2.252   2.190   2.030   2.072   2.099   2.145   2.022   1.926   1.998   2.046   2.123   2.245   2.202   2.378   2.483   2.366   2.355   2.329   2.463   2.209   2.216   2.360   2.282   2.163   2.194   2.396   2.349   2.368   2.301   2.154   2.300   2.365   2.275   2.382   2.243   2.263   2.167   2.196   2.285   2.244   2.374   2.304   2.434   2.398   2.288   2.315   2.313   2.396   2.541   2.417   2.541   2.372   2.414   2.355   2.217   2.338   2.525   2.533   2.401   2.142
    11.00    2.235   2.185   2.168   2.235   2.124   2.514   2.623   2.511   2.507   2.523   2.352   2.311   2.274   2.188   2.175   2.031   2.112   2.088   2.063   1.957   1.759   2.015   2.029   2.109   2.278   2.371   2.540   2.457   2.631   2.420   2.474   2.475   2.371   2.304   2.373   2.293   2.375   2.328   2.342   2.400   2.272   2.233   2.305   2.306   2.279   2.273   2.194   2.404   2.300   2.187   2.132   2.317   2.206   2.303   2.387   2.319   2.314   2.441   2.161   2.301   2.330   2.339   2.479   2.381   2.608   2.631   2.605   2.321   2.549   2.397   2.365   2.277   2.252
     6.00    2.269   2.097   2.177   1.922   2.166   2.428   2.400   2.388   2.362   2.438   2.425   2.166   2.286   2.202   2.297   2.231   2.133   2.162   1.941   2.156   1.978   2.083   2.163   2.242   2.251   2.393   2.427   2.604   2.551   2.654   2.449   2.463   2.256   2.267   2.368   2.496   2.567   2.547   2.522   2.431   2.284   2.270   2.283   2.297   2.429   2.222   2.511   2.472   2.248   2.227   2.246   2.120   2.220   2.320   2.311   2.295   2.468   2.298   2.235   2.265   2.395   2.396   2.364   2.553   2.561   2.748   2.549   2.407   2.533   2.500   2.248   2.302   2.146
     1.00    2.295   2.165   2.033   2.077   2.123   2.344   2.338   2.401   2.438   2.366   2.235   2.233   2.334   2.276   2.205   2.213   2.318   2.085   2.058   2.078   2.044   2.158   2.221   2.249   2.331   2.394   2.513   2.529   2.653   2.646   2.353   2.130   2.188   2.280   2.473   2.281   2.466   2.314   2.287   2.323   2.188   2.227   2.211   2.119   2.273   2.456   2.631   2.443   2.256   2.383   2.121   2.054   2.269   2.389   2.249   2.392   2.360   2.300   2.354   2.357   2.475   2.410   2.307   2.577   2.728   2.673   2.631   2.331   2.391   2.298   2.207   2.208   2.179

   Height   Standard deviation at grid points for the v component:
   301.00    1.817   1.831   1.760   1.705   1.730   1.673   1.746   1.724   1.666   1.593   1.592   1.633   1.645   1.677   1.780   1.769   1.790   1.836   1.762   1.771   1.787   1.770   1.774   1.734   1.757   1.790   1.771   1.801   1.685   1.839   1.878   1.810   1.829   1.859   1.762   1.771   1.832   1.860   1.960   1.968   2.072   1.988   2.045   2.049   2.199   2.157   1.976   1.977   1.940   1.909   1.909   1.846   1.861   1.993   2.100   1.952   1.968   1.949   2.086   1.993   1.937   1.940   2.042   1.902   1.859   1.837   1.753   1.781   1.790   1.774   1.705   1.580   1.673
   296.00    1.798   1.792   1.716   1.780   1.771   1.630   1.724   1.717   1.603   1.541   1.592   1.589   1.719   1.789   1.772   1.703   1.786   1.807   1.730   1.717   1.682   1.788   1.776   1.704   1.829   1.729   1.808   1.810   1.757   1.698   1.715   1.790   1.776   1.801   1.822   1.806   1.959   1.881   1.992   2.061   2.000   2.068   2.021   2.048   2.194   2.195   2.023   1.948   1.957   1.943   1.898   1.973   1.806   1.947   1.970   1.976   1.952   1.949   1.920   1.933   1.876   1.849   1.904   1.876   1.814   1.873   1.757   1.733   1.661   1.836   1.764   1.665   1.626
   291.00    1.752   1.770   1.782   1.835   1.889   1.725   1.779   1.747   1.628   1.644   1.661   1.692   1.732   1.670   1.703   1.744   1.811   1.751   1.658   1.720   1.771   1.874   1.967   1.853   1.913   2.075   1.890   1.920   1.864   1.760   1.784   1.815   1.828   1.786   1.992   2.024   2.048   1.944   2.009   2.097   2.145   2.097   2.052   2.006   2.103   2.099   1.993   1.858   1.843   1.830   1.798   1.912   1.838   1.912   1.847   1.819   1.895   1.889   1.877   1.945   1.928   1.862   1.829   1.859   1.897   1.936   1.933   1.802   1.768   1.791   1.699   1.781   1.634
   286.00    1.676   1.736   1.840   1.913   1.922   1.927   1.862   1.794   1.676   1.715   1.675   1.682   1.736   1.657   1.725   1.667   1.804   1.752   1.666   1.710   1.837   1.899   1.990   1.944   1.993   1.961   2.034   1.941   1.935   1.876   1.801   1.836   1.750   1.786   1.987   2.025   1.956   1.968   2.103   2.025   2.059   2.148   2.105   2.009   2.089   1.922   1.898   1.907   1.829   1.848   1.856   1.853   1.859   1.794   1.819   1.873   1.842   1.807   1.904   1.841   1.881   1.843   1.838   1.885   1.935   1.924   1.805   1.913   1.760   1.741   1.754   1.823   1.793
   281.00    1.730   1.784   1.926   1.946   2.012   1.959   1.774   1.704   1.615   1.585   1.647   1.566   1.626   1.666   1.686   1.738   1.803   1.779   1.754   1.755   1.843   2.005   1.917   1.856   1.940   1.988   1.936   1.919   1.822   1.891   1.910   1.936   1.939   1.904   1.971   1.954   1.909   1.862   1.954   2.099   2.036   2.154   2.146   2.028   2.084   2.085   1.985   1.974   1.959   1.793   1.728   1.835   1.900   1.900   1.911   1.941   1.855   1.728   1.682   1.834   1.774   1.863   1.798   1.883   1.974   1.858   1.762   1.788   1.766   1.831   1.801   1.777   1.832
   276.00    1.791   1.820   1.843   1.901   2.007   1.899   1.860   1.714   1.628   1.542   1.582   1.647   1.667   1.714   1.643   1.585   1.733   1.725   1.856   1.904   1.933   1.921   1.808   1.893   1.801   1.848   1.840   1.817   1.821   1.883   1.984   1.953   1.892   1.976   1.819   1.880   1.771   1.798   1.847   2.014   2.130   2.070   2.080   2.098   2.118   2.024   2.008   1.987   1.901   1.798   1.764   1.759   1.843   1.857   1.870   1.939   1.855   1.749   1.721   1.770   1.762   1.766   1.811   1.891   1.941   1.892   1.908   1.766   1.768   1.798   1.848   1.741   1.753
   271.00    1.765   1.783   1.689   1.829   1.886   1.715   1.715   1.675   1.574   1.485   1.650   1.681   1.650   1.652   1.602   1.527   1.629   1.707   1.764   1.851   1.872   1.846   1.818   1.745   1.764   1.767   1.785   1.770   1.682   1.853   1.893   1.848   1.900   1.927   1.815   1.888   1.797   1.766   1.873   1.929   2.087   2.081   2.181   1.998   2.114   2.139   2.041   1.918   1.807   1.834   1.804   1.802   1.918   1.894   2.000   1.929   1.798   1.795   1.786   1.756   1.784   1.642   1.696   1.712   1.814   1.859   1.862   1.802   1.818   1.850   1.891   1.853   1.773
   266.00    1.917   1.858   1.673   1.698   1.680   1.649   1.671   1.694   1.632   1.565   1.666   1.632   1.714   1.730   1.678   1.639   1.683   1.761   1.795   1.795   1.673   1.725   1.751   1.763   1.628   1.743   1.761   1.642   1.666   1.682   1.821   1.967   1.849   2.008   1.802   1.918   1.819   1.900   1.797   1.847   2.003   1.999   2.063   2.058   2.077   2.121   2.065   1.989   2.002   1.846   1.757   1.925   1.981   1.973   2.011   1.989   1.955   1.904   1.847   1.727   1.681   1.706   1.646   1.573   1.752   1.777   1.702   1.768   1.799   1.779   1.834   1.957   1.883
   261.00    1.870   1.694   1.665   1.603   1.594   1.581   1.711   1.661   1.615   1.605   1.603   1.585   1.636   1.587   1.613   1.628   1.680   1.734   1.710   1.624   1.651   1.651   1.689   1.751   1.850   1.744   1.739   1.707   1.698   1.702   1.774   1.744   1.833   1.931   1.827   1.916   1.867   1.810   1.983   1.874   1.826   1.945   2.070   2.030   2.077   2.196   2.121   2.009   1.965   1.892   1.816   1.889   1.874   1.956   1.956   2.059   2.028   1.922   1.814   1.795   1.721   1.728   1.645   1.635   1.686   1.807   1.817   1.839   1.849   1.868   1.936   1.872   1.873
   256.00    1.747   1.629   1.655   1.657   1.580   1.683   1.726   1.687   1.622   1.651   1.566   1.583   1.588   1.635   1.619   1.605   1.628   1.620   1.642   1.604   1.560   1.489   1.611   1.759   1.762   1.709   1.788   1.720   1.694   1.672   1.805   1.838   1.893   1.759   1.772   1.901   1.964   1.919   1.883   1.939   1.935   1.947   2.048   2.113   2.021   2.076   2.140   1.962   1.922   1.829   1.855   1.896   1.861   1.918   1.961   2.027   2.092   1.909   1.802   1.860   1.710   1.740   1.724   1.707   1.757   1.784   1.789   1.838   1.885   1.895   1.916   1.976   1.923
   251.00    1.604   1.594   1.578   1.533   1.605   1.698   1.756   1.797   1.702   1.719   1.659   1.621   1.568   1.639   1.652   1.580   1.616   1.633   1.602   1.656   1.607   1.474   1.583   1.658   1.716   1.720   1.765   1.685   1.679   1.813   1.871   1.999   1.842   1.822   1.797   1.874   1.897   1.979   1.964   1.945   2.036   1.917   2.069   2.081   2.048   2.118   2.165   1.944   1.822   1.807   1.719   1.704   1.790   1.974   2.027   2.122   2.062   1.933   1.835   1.780   1.727   1.729   1.793   1.751   1.847   1.775   1.828   1.856   1.989   1.938   1.965   1.936   1.985
   246.00    1.624   1.593   1.543   1.620   1.653   1.690   1.698   1.706   1.730   1.740   1.722   1.617   1.590   1.584   1.596   1.552   1.508   1.588   1.699   1.615   1.599   1.548   1.574   1.645   1.700   1.676   1.804   1.837   1.824   1.784   1.863   1.878   1.847   1.818   1.836   1.918   1.953   1.952   1.872   1.884   1.950   2.034   2.075   2.117   2.041   2.132   2.056   1.915   1.960   1.805   1.729   1.780   1.846   2.079   2.108   2.172   2.118   2.013   1.807   1.740   1.585   1.732   1.812   1.846   1.825   1.915   1.795   1.934   2.088   1.953   1.934   1.953   1.930
   241.00    1.657   1.597   1.641   1.676   1.641   1.702   1.713   1.633   1.660   1.669   1.642   1.580   1.622   1.594   1.666   1.631   1.570   1.663   1.644   1.699   1.671   1.638   1.651   1.640   1.643   1.637   1.778   1.833   1.770   1.951   1.863   1.933   1.852   1.973   1.988   2.007   2.013   2.052   1.884   2.050   1.989   2.070   2.079   2.083   2.117   2.077   2.116   1.925   1.916   1.852   1.896   1.894   1.987   2.118   2.207   2.182   2.111   1.864   1.795   1.700   1.673   1.789   1.782   1.876   1.824   1.909   1.913   1.838   1.845   1.940   1.932   1.903   1.825
   236.00    1.647   1.577   1.639   1.734   1.826   1.786   1.705   1.653   1.673   1.678   1.606   1.559   1.640   1.597   1.607   1.646   1.580   1.591   1.631   1.676   1.763   1.720   1.669   1.654   1.690   1.714   1.842   1.804   1.877   1.909   1.927   1.883   1.935   1.922   2.014   1.885   1.972   2.136   1.936   1.973   1.994   2.081   2.186   2.171   2.126   2.213   2.011   1.951   1.868   1.981   1.969   1.901   1.970   2.052   2.160   2.271   2.139   1.990   1.774   1.718   1.658   1.660   1.743   1.875   1.763   1.821   1.864   1.904   1.866   1.816   1.923   1.941   1.761
   231.00    1.675   1.590   1.772   1.751   1.868   1.778   1.694   1.578   1.709   1.659   1.633   1.541   1.569   1.601   1.624   1.583   1.521   1.631   1.619   1.603   1.598   1.708   1.636   1.745   1.755   1.697   1.786   1.929   1.854   1.932   1.780   1.709   1.778   1.858   1.915   1.896   1.926   1.972   1.986   2.059   1.994   1.998   1.999   1.990   2.153   2.164   2.036   1.977   1.897   1.948   1.992   1.996   1.948   2.052   2.185   2.120   2.197   1.926   1.854   1.808   1.697   1.633   1.707   1.804   1.839   1.736   1.837   1.912   1.807   1.887   1.908   1.921   1.869
   226.00    1.711   1.727   1.781   1.716   1.857   1.742   1.642   1.629   1.714   1.687   1.620   1.569   1.558   1.682   1.634   1.573   1.499   1.592   1.539   1.640   1.605   1.686   1.873   1.740   1.775   1.894   1.808   1.889   1.853   1.820   1.710   1.606   1.737   1.883   1.916   1.912   1.937   1.951   2.013   2.054   2.043   1.993   2.082   2.073   2.087   1.954   2.052   1.951   1.853   1.918   1.870   1.976   1.908   2.004   2.068   2.144   2.169   1.909   1.896   1.877   1.640   1.752   1.734   1.714   1.777   1.818   1.779   1.777   1.796   1.852   1.937   1.984   1.890
   221.00    1.869   1.765   1.850   1.772   1.800   1.870   1.632   1.772   1.761   1.678   1.597   1.628   1.552   1.607   1.631   1.538   1.489   1.530   1.561   1.607   1.734   1.808   1.824   1.905   1.878   1.797   1.860   1.810   1.752   1.733   1.678   1.638   1.754   1.907   1.925   1.917   1.973   1.950   1.986   2.071   2.057   2.080   2.057   1.994   2.002   1.972   2.101   2.031   1.894   1.895   1.922   1.981   2.031   2.033   1.936   2.089   1.984   1.881   1.862   1.727   1.714   1.659   1.658   1.779   1.764   1.733   1.805   1.842   1.925   1.982   1.846   1.889   1.830
   216.00    1.765   1.785   1.814   1.886   1.847   1.830   1.779   1.724   1.829   1.678   1.584   1.590   1.640   1.632   1.747   1.626   1.569   1.548   1.610   1.588   1.760   1.789   1.916   1.898   1.877   1.936   1.925   1.850   1.737   1.695   1.672   1.739   1.677   1.767   1.851   1.921   2.006   1.968   1.986   1.977   2.038   1.979   2.056   1.996   1.963   1.982   2.015   1.942   1.940   1.964   1.877   1.971   1.938   1.936   2.065   2.091   1.964   1.836   1.725   1.761   1.648   1.730   1.758   1.675   1.748   1.664   1.747   1.857   1.945   1.991   1.851   1.866   1.900
   211.00    1.749   1.760   1.756   1.839   1.731   1.688   1.717   1.796   1.758   1.599   1.639   1.591   1.645   1.680   1.753   1.630   1.648   1.641   1.614   1.675   1.887   1.747   1.681   1.817   1.819   1.808   1.822   1.854   1.828   1.713   1.724   1.674   1.691   1.725   1.775   1.966   2.023   2.110   2.059   2.078   2.092   1.991   2.007   2.065   2.131   2.052   2.032   1.972   2.030   2.020   1.831   1.927   1.987   2.007   1.973   2.009   1.942   1.686   1.691   1.737   1.647   1.698   1.750   1.629   1.672   1.668   1.742   1.845   1.845   1.851   1.799   1.814   1.824
   206.00    1.730   1.775   1.730   1.633   1.726   1.707   1.679   1.721   1.711   1.606   1.610   1.624   1.632   1.622   1.718   1.718   1.719   1.693   1.610   1.627   1.762   1.737   1.707   1.696   1.738   1.749   1.848   1.912   1.774   1.791   1.691   1.781   1.851   1.778   1.756   1.956   2.027   1.995   2.089   2.145   2.096   2.164   2.162   2.164   2.053   2.066   2.091   2.063   2.031   1.923   1.837   1.807   2.015   1.970   1.980   1.958   1.814   1.710   1.557   1.678   1.719   1.692   1.600   1.648   1.485   1.546   1.707   1.667   1.761   1.755   1.759   1.701   1.811
   201.00    1.716   1.699   1.662   1.658   1.773   1.784   1.711   1.644   1.665   1.491   1.566   1.606   1.667   1.679   1.636   1.705   1.716   1.748   1.644   1.709   1.750   1.753   1.778   1.827   1.742   1.766   1.739   1.833   1.667   1.715   1.793   1.695   1.738   1.786   1.755   1.834   1.930   1.979   2.091   2.189   2.186   2.197   2.104   2.113   2.114   2.044   2.056   2.062   1.905   1.910   1.833   1.811   1.862   1.900   1.983   1.850   1.926   1.835   1.586   1.641   1.763   1.592   1.597   1.524   1.446   1.535   1.649   1.652   1.702   1.751   1.753   1.789   1.832
   196.00    1.713   1.735   1.729   1.779   1.684   1.776   1.715   1.670   1.699   1.508   1.660   1.556   1.639   1.675   1.726   1.775   1.756   1.777   1.758   1.627   1.645   1.810   1.850   1.777   1.797   1.746   1.759   1.682   1.703   1.642   1.726   1.749   1.753   1.803   1.838   1.843   1.955   2.008   2.138   2.201   2.188   2.152   2.182   2.177   2.010   1.999   1.998   1.972   1.775   1.798   1.774   1.745   1.811   1.775   1.802   1.898   2.010   1.800   1.692   1.676   1.698   1.628   1.574   1.586   1.561   1.516   1.543   1.747   1.742   1.769   1.767   1.788   1.722
   191.00    1.653   1.675   1.722   1.704   1.717   1.628   1.628   1.563   1.728   1.708   1.710   1.646   1.535   1.677   1.645   1.699   1.725   1.665   1.637   1.688   1.730   1.886   1.828   1.852   1.846   1.737   1.732   1.737   1.695   1.628   1.736   1.724   1.838   1.810   1.819   1.871   1.894   1.981   2.052   2.189   2.189   2.130   2.162   2.096   2.117   2.061   1.828   1.792   1.803   1.825   1.697   1.569   1.683   1.694   1.750   1.890   1.858   1.893   1.806   1.725   1.744   1.666   1.632   1.616   1.609   1.620   1.634   1.665   1.705   1.717   1.778   1.658   1.725
   186.00    1.745   1.791   1.781   1.721   1.667   1.651   1.644   1.686   1.741   1.745   1.669   1.708   1.583   1.644   1.710   1.786   1.733   1.692   1.658   1.691   1.799   1.815   2.020   1.919   1.772   1.792   1.718   1.683   1.608   1.611   1.648   1.752   1.866   1.912   1.801   1.833   1.776   1.820   2.024   2.012   1.988   1.895   2.061   2.076   2.058   1.938   1.877   1.811   1.722   1.798   1.643   1.719   1.728   1.790   1.943   1.840   1.799   1.773   1.702   1.701   1.724   1.744   1.539   1.523   1.492   1.686   1.723   1.729   1.636   1.698   1.727   1.611   1.646
   181.00    1.619   1.666   1.769   1.796   1.743   1.689   1.696   1.717   1.753   1.614   1.600   1.669   1.541   1.645   1.655   1.739   1.735   1.787   1.782   1.776   1.790   1.840   1.915   1.866   1.855   1.744   1.758   1.711   1.587   1.669   1.697   1.751   1.858   1.867   1.912   1.797   1.724   1.791   1.847   1.940   1.963   1.887   2.058   1.884   1.852   1.793   1.847   1.847   1.793   1.857   1.794   1.775   1.806   1.779   1.892   1.784   1.688   1.805   1.789   1.646   1.547   1.630   1.607   1.551   1.506   1.753   1.730   1.581   1.610   1.697   1.716   1.731   1.713
   176.00    1.690   1.699   1.630   1.692   1.748   1.649   1.655   1.711   1.688   1.649   1.762   1.836   1.644   1.652   1.737   1.759   1.813   1.854   1.844   1.805   1.846   1.855   1.830   1.920   1.885   1.756   1.702   1.734   1.590   1.712   1.717   1.844   1.839   1.877   1.872   1.736   1.725   1.754   1.808   1.931   1.834   1.887   1.902   1.916   1.816   1.776   1.707   1.886   1.825   1.763   1.700   1.701   1.758   1.773   1.819   1.753   1.746   1.788   1.788   1.727   1.601   1.597   1.657   1.570   1.690   1.672   1.734   1.664   1.633   1.753   1.682   1.741   1.704
   171.00    1.595   1.683   1.557   1.622   1.668   1.718   1.731   1.751   1.686   1.749   1.810   1.767   1.646   1.629   1.714   1.769   1.774   1.768   1.730   1.711   1.826   1.900   1.988   1.922   1.773   1.750   1.728   1.749   1.657   1.601   1.660   1.811   1.836   1.867   1.904   1.916   1.820   1.785   1.819   1.790   1.801   1.821   1.895   1.838   1.890   1.894   1.753   1.815   1.828   1.760   1.782   1.772   1.799   1.758   1.758   1.675   1.861   1.901   1.781   1.678   1.556   1.596   1.609   1.622   1.689   1.719   1.579   1.645   1.659   1.673   1.675   1.642   1.648
   166.00    1.649   1.700   1.632   1.631   1.650   1.681   1.674   1.580   1.638   1.687   1.674   1.657   1.727   1.787   1.778   1.726   1.595   1.562   1.628   1.590   1.660   1.833   2.001   1.945   1.666   1.757   1.645   1.776   1.646   1.710   1.735   1.821   1.839   1.725   1.877   1.876   1.887   1.867   1.850   1.812   1.786   1.891   1.846   1.834   1.877   1.929   1.760   1.895   1.889   1.852   1.836   1.822   1.697   1.780   1.744   1.819   1.890   1.927   1.761   1.795   1.565   1.657   1.618   1.604   1.636   1.664   1.619   1.616   1.687   1.604   1.660   1.634   1.678
   161.00    1.732   1.735   1.725   1.742   1.604   1.527   1.581   1.636   1.642   1.731   1.748   1.740   1.772   1.863   1.761   1.651   1.651   1.655   1.593   1.562   1.692   1.751   1.811   1.862   1.628   1.669   1.755   1.756   1.714   1.820   1.741   1.790   1.825   1.839   1.891   1.799   1.851   1.886   1.923   1.855   1.807   1.656   1.808   1.948   2.045   1.914   1.831   1.854   1.907   1.919   1.921   1.903   1.835   1.954   1.851   1.785   1.914   1.921   1.826   1.793   1.818   1.742   1.604   1.647   1.571   1.605   1.665   1.677   1.635   1.551   1.599   1.666   1.678
   156.00    1.737   1.754   1.688   1.650   1.668   1.526   1.590   1.698   1.817   1.770   1.820   1.702   1.818   1.857   1.697   1.706   1.582   1.636   1.590   1.609   1.628   1.687   1.747   1.809   1.784   1.708   1.781   1.867   1.864   1.778   1.904   1.889   1.849   1.895   1.840   1.858   1.808   1.946   1.987   1.930   1.804   1.761   1.862   1.925   1.919   1.881   1.895   1.828   1.812   1.871   1.883   1.795   1.911   1.990   1.924   1.784   1.850   1.844   1.671   1.746   1.762   1.742   1.605   1.528   1.542   1.592   1.601   1.533   1.563   1.588   1.626   1.622   1.682
   151.00    1.736   1.771   1.752   1.809   1.656   1.654   1.688   1.819   1.706   1.787   1.745   1.734   1.747   1.785   1.759   1.726   1.672   1.662   1.690   1.597   1.673   1.642   1.674   1.833   1.804   1.777   1.823   1.865   1.888   1.839   1.775   1.850   1.922   1.913   1.889   1.969   2.016   1.956   1.962   1.943   1.967   1.899   1.937   1.930   1.894   1.881   1.871   1.829   1.833   1.826   1.831   1.766   1.852   1.915   1.941   1.789   1.840   1.966   1.839   1.835   1.806   1.754   1.737   1.592   1.571   1.593   1.576   1.607   1.585   1.527   1.532   1.645   1.663
   146.00    1.847   1.869   1.786   1.782   1.759   1.616   1.630   1.738   1.786   1.737   1.650   1.769   1.824   1.864   1.750   1.766   1.733   1.635   1.701   1.664   1.634   1.644   1.823   1.847   1.768   1.689   1.775   1.773   1.769   1.813   1.771   1.786   1.966   1.924   1.936   2.038   2.169   2.029   2.042   2.011   2.016   2.043   2.105   2.055   1.982   1.982   1.885   1.811   1.763   1.806   1.754   1.747   1.877   1.920   1.969   1.859   1.934   2.026   1.931   1.921   1.876   1.860   1.879   1.631   1.717   1.641   1.581   1.593   1.694   1.706   1.588   1.602   1.656
   141.00    1.818   1.812   1.732   1.645   1.646   1.671   1.604   1.565   1.616   1.550   1.654   1.888   1.853   1.829   1.853   1.683   1.708   1.661   1.647   1.732   1.671   1.731   1.753   1.735   1.704   1.781   1.700   1.710   1.836   1.919   1.882   1.933   2.069   2.004   1.965   2.011   2.019   2.158   2.213   2.120   2.157   2.047   2.160   2.132   2.029   1.971   1.893   1.807   1.729   1.799   1.885   1.978   1.948   2.003   1.858   1.818   1.893   1.938   2.016   1.979   1.972   1.874   1.802   1.744   1.896   1.695   1.605   1.610   1.583   1.611   1.602   1.543   1.644
   136.00    1.845   1.716   1.815   1.647   1.609   1.614   1.570   1.646   1.566   1.579   1.704   1.832   1.888   1.799   1.840   1.677   1.772   1.813   1.763   1.670   1.755   1.873   1.770   1.795   1.688   1.762   1.773   1.737   1.772   1.842   1.912   1.814   1.976   1.975   1.842   2.079   2.021   2.111   2.181   2.205   2.216   2.154   2.123   2.017   1.964   1.934   1.835   1.782   1.765   1.768   1.756   1.842   1.993   2.008   1.965   1.860   1.927   1.982   1.956   1.874   1.810   1.715   1.800   1.883   1.900   1.732   1.603   1.569   1.563   1.606   1.579   1.600   1.644
   131.00    1.808   1.811   1.865   1.713   1.635   1.671   1.704   1.734   1.682   1.682   1.701   1.843   1.845   1.780   1.828   1.767   1.801   1.944   1.831   1.753   1.853   1.870   1.851   1.786   1.668   1.775   1.806   1.791   1.823   1.876   1.836   1.930   2.052   1.909   1.891   2.022   1.979   2.092   2.168   2.199   2.171   2.161   2.035   2.052   2.029   1.936   1.980   1.785   1.841   1.717   1.774   1.815   1.889   1.982   2.032   2.066   2.010   1.945   2.015   1.985   1.900   1.670   1.738   1.877   1.825   1.797   1.619   1.545   1.586   1.675   1.635   1.639   1.733
   126.00    1.870   1.821   1.871   1.717   1.686   1.688   1.771   1.801   1.713   1.729   1.754   1.794   1.915   1.826   1.815   1.812   1.882   1.852   1.799   1.761   1.796   1.752   1.842   1.888   1.894   1.716   1.783   1.831   1.869   1.869   1.801   2.015   2.050   2.056   1.909   2.013   1.999   2.135   2.097   2.079   2.046   2.059   1.940   1.925   2.036   2.007   2.063   1.843   1.875   1.783   1.787   1.807   1.914   1.850   2.001   1.998   1.988   2.055   1.933   1.931   1.820   1.754   1.748   1.853   1.762   1.618   1.653   1.644   1.609   1.677   1.733   1.687   1.727
   121.00    1.808   1.822   1.758   1.717   1.783   1.886   1.926   1.953   1.915   1.930   1.985   2.000   1.996   1.733   1.872   1.797   1.743   1.747   1.767   1.789   1.745   1.860   1.877   1.886   1.838   1.869   1.801   1.873   1.853   1.918   1.883   2.022   1.941   2.046   1.901   1.904   1.966   2.091   2.029   1.984   2.036   1.956   1.894   1.843   1.927   1.963   2.037   1.954   1.883   1.732   1.723   1.762   1.779   1.734   1.895   1.930   1.897   1.871   1.868   1.897   1.746   1.708   1.768   1.808   1.773   1.589   1.604   1.665   1.779   1.674   1.768   1.636   1.673
   116.00    1.816   1.762   1.786   1.768   1.736   1.811   1.850   1.911   1.943   1.981   1.954   2.030   2.089   1.951   2.016   1.864   1.861   1.732   1.835   1.811   1.968   1.976   1.887   1.909   1.977   1.923   1.865   1.916   1.869   1.827   1.759   1.792   1.811   1.862   1.822   1.858   1.857   1.967   1.922   1.902   1.997   1.973   1.920   1.899   1.985   1.920   1.953   2.019   1.936   1.815   1.754   1.766   1.744   1.832   1.822   1.924   1.902   1.800   1.899   1.951   1.848   1.675   1.781   1.809   1.814   1.757   1.687   1.777   1.878   1.820   1.752   1.763   1.631
   111.00    1.783   1.724   1.812   1.827   1.886   1.864   1.924   1.815   1.958   2.009   1.917   2.036   2.028   2.009   1.946   1.844   1.775   1.775   1.842   1.932   1.849   1.904   1.878   2.025   1.985   1.874   1.898   1.844   1.917   1.845   1.690   1.574   1.708   1.699   1.681   1.752   1.820   1.765   1.787   1.856   1.887   1.897   1.846   1.961   1.992   2.023   2.053   1.910   1.830   1.792   1.754   1.797   1.766   1.884   1.932   1.886   1.894   1.888   1.853   1.867   1.804   1.785   1.791   1.787   1.775   1.772   1.804   1.769   1.745   1.667   1.667   1.699   1.754
   106.00    1.692   1.809   1.845   1.780   1.863   1.844   1.890   1.868   1.877   1.998   1.972   1.952   1.931   1.986   1.863   1.724   1.836   1.779   1.792   1.925   1.944   1.893   1.899   1.991   2.064   1.896   1.880   1.888   1.851   1.785   1.681   1.609   1.667   1.682   1.754   1.768   1.822   1.872   1.810   1.806   1.769   1.752   1.781   1.800   1.977   2.042   2.046   1.981   1.798   1.788   1.786   1.652   1.686   1.856   1.860   1.879   1.950   1.973   1.868   1.810   1.776   1.766   1.755   1.810   1.829   1.741   1.710   1.714   1.646   1.587   1.727   1.723   1.831
   101.00    1.614   1.550   1.660   1.797   1.853   1.816   1.898   1.924   1.849   1.978   2.047   1.957   1.934   1.939   1.770   1.673   1.828   1.807   1.882   1.872   1.912   1.939   1.926   1.993   2.009   1.943   1.948   1.995   1.888   1.770   1.759   1.748   1.753   1.680   1.663   1.658   1.663   1.655   1.699   1.776   1.695   1.786   1.762   1.819   1.821   2.006   2.096   2.002   1.920   1.860   1.691   1.752   1.807   1.801   1.847   1.815   1.873   1.871   1.909   1.735   1.771   1.700   1.798   1.918   1.782   1.830   1.719   1.555   1.594   1.710   1.707   1.740   1.772
    96.00    1.509   1.550   1.655   1.788   1.889   1.891   1.960   1.764   1.801   1.854   1.912   1.877   1.925   1.839   1.727   1.704   1.787   1.772   1.834   1.904   1.921   1.957   1.977   1.956   2.025   1.887   1.968   1.826   1.804   1.679   1.869   1.815   1.675   1.656   1.721   1.680   1.712   1.757   1.668   1.633   1.821   1.725   1.805   1.780   1.797   1.894   2.025   1.985   1.904   1.892   1.812   1.703   1.840   1.821   1.929   2.000   2.057   1.880   1.827   1.747   1.735   1.670   1.636   1.743   1.837   1.877   1.682   1.648   1.709   1.697   1.666   1.731   1.682
    91.00    1.605   1.604   1.741   1.876   1.901   1.711   1.760   1.835   1.764   1.855   1.927   1.980   1.863   1.765   1.748   1.743   1.765   1.771   1.867   1.945   1.863   1.894   2.007   1.998   1.980   1.899   1.813   1.888   1.888   1.798   1.862   1.743   1.758   1.612   1.675   1.708   1.687   1.787   1.808   1.822   1.787   1.807   1.786   1.822   1.953   1.887   1.940   2.024   1.976   1.848   1.878   1.804   1.777   1.941   1.872   1.960   1.970   1.966   1.772   1.779   1.750   1.791   1.595   1.668   1.772   1.746   1.707   1.662   1.677   1.753   1.669   1.746   1.663
    86.00    1.610   1.553   1.715   1.734   1.877   1.832   1.741   1.803   1.815   1.890   1.809   2.001   1.964   1.790   1.750   1.704   1.717   1.735   1.800   1.803   1.783   1.776   1.946   2.001   2.004   2.063   1.928   1.804   1.835   1.925   1.906   1.770   1.850   1.737   1.845   1.803   1.847   1.687   1.762   1.827   1.851   1.800   1.806   1.835   1.991   1.954   1.905   1.951   1.967   1.796   1.780   1.723   1.786   1.923   1.924   1.903   1.877   1.933   1.848   1.870   1.751   1.819   1.703   1.728   1.729   1.604   1.652   1.584   1.754   1.758   1.771   1.712   1.638
    81.00    1.706   1.583   1.659   1.728   1.725   1.827   1.777   1.736   1.819   1.864   1.886   1.926   1.884   1.739   1.706   1.637   1.591   1.731   1.817   1.675   1.693   1.741   1.834   1.922   1.877   2.096   1.965   1.930   1.751   1.916   1.934   1.849   1.942   1.866   1.967   1.932   1.897   1.688   1.748   1.765   1.779   1.843   1.768   1.703   1.833   1.847   1.884   2.006   1.901   1.830   1.750   1.676   1.782   1.837   1.836   1.811   1.850   1.816   1.638   1.702   1.782   1.812   1.760   1.781   1.744   1.644   1.598   1.642   1.652   1.808   1.809   1.782   1.726
    76.00    1.690   1.694   1.646   1.756   1.772   1.801   1.715   1.802   1.751   1.898   1.755   1.739   1.661   1.653   1.715   1.605   1.718   1.673   1.747   1.679   1.755   1.764   1.804   1.784   1.997   2.033   1.953   1.926   1.888   1.819   1.846   1.806   1.948   1.936   1.858   1.970   1.933   1.780   1.791   1.756   1.720   1.710   1.711   1.738   1.766   1.800   1.862   1.937   1.912   1.699   1.629   1.684   1.662   1.686   1.736   1.710   1.666   1.616   1.668   1.594   1.645   1.833   1.777   1.767   1.760   1.740   1.538   1.581   1.639   1.675   1.843   1.700   1.670
    71.00    1.710   1.692   1.746   1.621   1.648   1.678   1.688   1.734   1.700   1.778   1.745   1.673   1.600   1.580   1.595   1.643   1.711   1.716   1.770   1.687   1.615   1.689   1.755   1.893   2.034   1.936   1.989   1.847   1.815   1.836   1.933   1.972   1.933   1.973   1.893   1.893   1.879   1.838   1.706   1.733   1.761   1.803   1.780   1.757   1.728   1.817   1.913   1.906   1.790   1.712   1.713   1.694   1.773   1.737   1.746   1.825   1.588   1.640   1.649   1.761   1.716   1.722   1.649   1.712   1.665   1.596   1.490   1.532   1.703   1.671   1.784   1.831   1.886
    66.00    1.699   1.762   1.654   1.586   1.545   1.544   1.616   1.659   1.643   1.735   1.664   1.630   1.521   1.600   1.655   1.687   1.665   1.718   1.711   1.698   1.640   1.607   1.767   1.872   1.948   1.897   1.816   1.904   1.853   1.977   1.926   1.951   1.950   1.927   1.893   1.979   1.824   1.780   1.765   1.795   1.750   1.724   1.699   1.811   1.716   1.759   1.787   1.808   1.718   1.670   1.594   1.632   1.668   1.599   1.631   1.768   1.668   1.714   1.698   1.665   1.716   1.676   1.555   1.614   1.693   1.612   1.530   1.532   1.637   1.776   1.777   1.780   1.939
    61.00    1.720   1.660   1.671   1.647   1.577   1.502   1.641   1.751   1.712   1.750   1.641   1.642   1.614   1.564   1.578   1.646   1.634   1.786   1.794   1.776   1.626   1.734   1.830   1.896   1.944   1.845   1.786   1.838   1.928   1.916   2.014   1.922   1.889   1.960   1.890   1.833   1.848   1.798   1.805   1.796   1.725   1.646   1.696   1.655   1.675   1.637   1.744   1.758   1.691   1.565   1.647   1.645   1.650   1.614   1.662   1.706   1.703   1.718   1.791   1.755   1.614   1.744   1.704   1.618   1.629   1.676   1.675   1.654   1.630   1.707   1.768   1.854   1.946
    56.00    1.774   1.741   1.651   1.667   1.506   1.502   1.658   1.694   1.714   1.729   1.753   1.653   1.654   1.555   1.527   1.627   1.733   1.771   1.783   1.813   1.792   1.714   1.816   1.827   1.838   1.820   1.808   1.712   1.873   1.849   1.865   1.938   1.997   1.852   1.807   1.786   1.815   1.713   1.768   1.695   1.659   1.672   1.646   1.662   1.594   1.690   1.665   1.671   1.645   1.721   1.709   1.682   1.703   1.738   1.545   1.597   1.790   1.796   1.934   1.840   1.822   1.726   1.683   1.640   1.623   1.686   1.708   1.643   1.673   1.628   1.773   1.827   1.891
    51.00    1.754   1.817   1.628   1.663   1.699   1.593   1.653   1.761   1.736   1.771   1.759   1.707   1.634   1.570   1.570   1.721   1.778   1.748   1.711   1.665   1.781   1.852   1.794   1.803   1.862   1.963   1.963   1.774   1.890   1.942   1.901   1.938   1.868   1.869   1.802   1.774   1.730   1.701   1.733   1.622   1.619   1.622   1.671   1.672   1.604   1.697   1.743   1.811   1.850   1.817   1.730   1.786   1.640   1.695   1.680   1.824   1.842   1.906   2.036   1.945   1.795   1.713   1.766   1.765   1.758   1.689   1.690   1.676   1.585   1.688   1.734   1.712   1.889
[...]
   161.00    1.083   1.071   1.091   1.112   1.098   1.132   1.165   1.173   1.198   1.171   1.156   1.133   1.170   1.137   1.157   1.093   1.087   1.071   1.064   1.115   1.126   1.083   1.114   1.087   1.104   1.148   1.168   1.191   1.207   1.184   1.161   1.180   1.194   1.179   1.172   1.184   1.191   1.180   1.148   1.172   1.172   1.179   1.131   1.201   1.177   1.199   1.152   1.161   1.193   1.213   1.189   1.163   1.170   1.232   1.217   1.253   1.254   1.250   1.175   1.168   1.157   1.139   1.066   1.070   1.088   1.122   1.123   1.138   1.126   1.171   1.156   1.138   1.135
   156.00    1.064   1.047   1.063   1.081   1.087   1.077   1.124   1.144   1.174   1.140   1.147   1.144   1.156   1.130   1.128   1.093   1.034   1.029   1.073   1.107   1.080   1.060   1.070   1.065   1.109   1.131   1.155   1.214   1.156   1.172   1.168   1.220   1.225   1.171   1.202   1.129   1.184   1.162   1.159   1.194   1.188   1.203   1.196   1.208   1.233   1.210   1.172   1.165   1.200   1.191   1.137   1.178   1.166   1.243   1.236   1.260   1.188   1.186   1.146   1.183   1.086   1.146   1.097   1.051   1.051   1.108   1.063   1.114   1.113   1.133   1.150   1.173   1.138
   151.00    1.078   1.056   1.049   1.050   1.050   1.069   1.072   1.097   1.162   1.101   1.097   1.126   1.143   1.129   1.117   1.077   1.049   1.089   1.120   1.100   1.098   1.113   1.062   1.064   1.094   1.136   1.133   1.167   1.173   1.184   1.226   1.272   1.232   1.167   1.157   1.124   1.140   1.118   1.129   1.182   1.205   1.182   1.132   1.184   1.182   1.194   1.214   1.201   1.156   1.183   1.172   1.225   1.206   1.248   1.240   1.226   1.194   1.147   1.134   1.147   1.138   1.135   1.118   1.115   1.091   1.094   1.109   1.106   1.122   1.137   1.139   1.141   1.140
   146.00    1.050   1.061   1.066   1.036   1.033   1.035   1.071   1.084   1.083   1.132   1.069   1.038   1.104   1.104   1.105   1.086   1.083   1.107   1.099   1.126   1.094   1.053   1.073   1.101   1.155   1.124   1.124   1.149   1.155   1.183   1.240   1.280   1.209   1.183   1.153   1.166   1.191   1.131   1.110   1.149   1.141   1.145   1.111   1.181   1.178   1.184   1.211   1.193   1.171   1.178   1.181   1.212   1.195   1.228   1.222   1.252   1.150   1.135   1.167   1.168   1.175   1.131   1.137   1.119   1.100   1.093   1.111   1.124   1.154   1.150   1.129   1.108   1.128
   141.00    1.084   1.057   1.095   1.092   1.074   1.072   1.102   1.140   1.112   1.134   1.081   1.083   1.109   1.180   1.169   1.130   1.094   1.082   1.107   1.143   1.120   1.080   1.066   1.118   1.180   1.124   1.141   1.148   1.146   1.176   1.174   1.174   1.170   1.174   1.125   1.154   1.146   1.151   1.107   1.142   1.127   1.112   1.145   1.125   1.149   1.183   1.224   1.229   1.212   1.186   1.225   1.222   1.214   1.209   1.197   1.189   1.168   1.145   1.128   1.179   1.146   1.131   1.126   1.127   1.094   1.120   1.132   1.142   1.165   1.111   1.068   1.100   1.180
   136.00    1.106   1.086   1.089   1.084   1.104   1.058   1.089   1.112   1.115   1.145   1.096   1.091   1.135   1.192   1.170   1.132   1.132   1.118   1.105   1.169   1.132   1.146   1.122   1.092   1.112   1.128   1.150   1.132   1.129   1.126   1.151   1.170   1.203   1.198   1.112   1.136   1.146   1.154   1.131   1.135   1.112   1.107   1.159   1.125   1.133   1.163   1.171   1.199   1.188   1.236   1.213   1.179   1.153   1.113   1.169   1.151   1.161   1.165   1.201   1.167   1.145   1.139   1.119   1.102   1.113   1.096   1.116   1.153   1.149   1.108   1.170   1.144   1.147
   131.00    1.141   1.147   1.068   1.094   1.094   1.090   1.114   1.142   1.119   1.113   1.104   1.116   1.150   1.199   1.116   1.160   1.158   1.137   1.156   1.125   1.124   1.109   1.148   1.105   1.082   1.113   1.134   1.129   1.151   1.148   1.136   1.173   1.184   1.165   1.126   1.145   1.123   1.178   1.128   1.123   1.149   1.121   1.121   1.125   1.128   1.156   1.142   1.134   1.181   1.215   1.217   1.176   1.103   1.137   1.114   1.117   1.157   1.134   1.185   1.148   1.152   1.167   1.105   1.119   1.112   1.115   1.140   1.111   1.084   1.091   1.113   1.128   1.135
   126.00    1.090   1.147   1.062   1.125   1.115   1.074   1.133   1.106   1.098   1.117   1.185   1.129   1.150   1.199   1.164   1.158   1.160   1.149   1.165   1.148   1.103   1.098   1.121   1.098   1.134   1.107   1.123   1.145   1.183   1.141   1.131   1.206   1.165   1.148   1.232   1.211   1.158   1.193   1.142   1.151   1.130   1.126   1.083   1.115   1.073   1.118   1.162   1.155   1.161   1.168   1.178   1.169   1.142   1.127   1.090   1.130   1.095   1.186   1.180   1.162   1.131   1.126   1.099   1.109   1.119   1.152   1.150   1.081   1.058   1.080   1.107   1.144   1.141
   121.00    1.066   1.094   1.121   1.119   1.120   1.117   1.094   1.096   1.083   1.119   1.137   1.131   1.127   1.158   1.167   1.203   1.163   1.144   1.185   1.161   1.087   1.104   1.119   1.136   1.108   1.117   1.125   1.090   1.133   1.156   1.168   1.164   1.173   1.191   1.205   1.180   1.185   1.139   1.141   1.091   1.108   1.141   1.116   1.129   1.137   1.086   1.137   1.175   1.156   1.155   1.182   1.159   1.144   1.105   1.114   1.080   1.145   1.181   1.151   1.186   1.149   1.143   1.108   1.134   1.132   1.145   1.167   1.078   1.049   1.103   1.108   1.115   1.107
   116.00    1.058   1.064   1.098   1.065   1.054   1.075   1.083   1.101   1.069   1.110   1.096   1.113   1.150   1.149   1.149   1.212   1.182   1.200   1.189   1.173   1.178   1.194   1.146   1.125   1.099   1.099   1.078   1.108   1.184   1.180   1.193   1.131   1.120   1.173   1.221   1.179   1.155   1.160   1.128   1.112   1.120   1.124   1.126   1.134   1.090   1.102   1.096   1.180   1.192   1.177   1.150   1.140   1.142   1.075   1.112   1.117   1.140   1.137   1.164   1.175   1.129   1.160   1.106   1.152   1.151   1.145   1.144   1.163   1.115   1.114   1.077   1.047   1.077
   111.00    1.066   1.052   1.047   1.059   1.026   1.055   1.062   1.100   1.073   1.071   1.108   1.090   1.114   1.146   1.142   1.149   1.169   1.193   1.184   1.195   1.194   1.169   1.184   1.162   1.121   1.129   1.130   1.105   1.134   1.124   1.141   1.108   1.113   1.135   1.165   1.142   1.147   1.143   1.113   1.103   1.092   1.122   1.121   1.126   1.109   1.077   1.118   1.128   1.186   1.155   1.141   1.141   1.115   1.076   1.099   1.117   1.146   1.147   1.152   1.145   1.141   1.133   1.138   1.144   1.106   1.154   1.104   1.116   1.107   1.088   1.051   1.075   1.080
   106.00    1.080   1.076   1.109   1.066   1.029   1.022   1.049   1.074   1.106   1.080   1.113   1.105   1.142   1.141   1.128   1.129   1.151   1.198   1.191   1.167   1.154   1.185   1.121   1.166   1.151   1.155   1.166   1.180   1.176   1.138   1.152   1.111   1.111   1.118   1.093   1.082   1.137   1.177   1.129   1.084   1.128   1.117   1.062   1.104   1.118   1.056   1.101   1.121   1.140   1.107   1.107   1.156   1.112   1.114   1.079   1.097   1.121   1.106   1.112   1.075   1.143   1.095   1.115   1.082   1.090   1.107   1.107   1.115   1.094   1.120   1.087   1.113   1.097
   101.00    1.119   1.087   1.097   1.087   1.070   1.080   1.028   1.076   1.095   1.091   1.076   1.139   1.130   1.134   1.123   1.112   1.126   1.175   1.133   1.158   1.166   1.165   1.150   1.130   1.144   1.154   1.138   1.170   1.148   1.138   1.145   1.139   1.145   1.112   1.122   1.101   1.126   1.105   1.123   1.168   1.137   1.125   1.106   1.106   1.113   1.101   1.097   1.132   1.138   1.152   1.143   1.129   1.118   1.103   1.089   1.069   1.090   1.080   1.093   1.062   1.099   1.102   1.126   1.109   1.124   1.108   1.128   1.122   1.107   1.128   1.085   1.121   1.107
    96.00    1.152   1.102   1.116   1.125   1.086   1.058   1.075   1.077   1.159   1.131   1.096   1.122   1.124   1.133   1.137   1.131   1.138   1.161   1.126   1.123   1.120   1.148   1.205   1.172   1.126   1.133   1.111   1.142   1.132   1.149   1.140   1.126   1.118   1.154   1.130   1.114   1.127   1.095   1.102   1.109   1.117   1.095   1.106   1.095   1.121   1.113   1.084   1.116   1.138   1.107   1.139   1.140   1.162   1.155   1.083   1.091   1.085   1.039   1.067   1.099   1.089   1.124   1.076   1.127   1.156   1.113   1.108   1.128   1.085   1.085   1.083   1.104   1.090
    91.00    1.150   1.134   1.102   1.083   1.117   1.111   1.121   1.172   1.175   1.174   1.135   1.116   1.130   1.099   1.110   1.131   1.115   1.167   1.102   1.082   1.109   1.154   1.158   1.191   1.118   1.095   1.104   1.116   1.097   1.196   1.162   1.143   1.122   1.157   1.159   1.144   1.127   1.085   1.075   1.085   1.090   1.107   1.152   1.125   1.166   1.132   1.153   1.154   1.133   1.127   1.111   1.150   1.165   1.130   1.110   1.069   1.072   1.036   1.091   1.103   1.077   1.112   1.122   1.132   1.138   1.158   1.103   1.121   1.072   1.098   1.090   1.069   1.113
    86.00    1.119   1.082   1.078   1.121   1.103   1.110   1.136   1.155   1.146   1.179   1.162   1.099   1.107   1.115   1.096   1.095   1.102   1.148   1.087   1.136   1.151   1.144   1.140   1.186   1.092   1.078   1.077   1.100   1.128   1.150   1.165   1.150   1.152   1.136   1.155   1.133   1.132   1.045   1.067   1.118   1.112   1.111   1.155   1.150   1.169   1.155   1.147   1.171   1.147   1.162   1.160   1.156   1.160   1.164   1.152   1.046   1.046   1.048   1.088   1.090   1.065   1.091   1.123   1.120   1.132   1.135   1.095   1.072   1.095   1.118   1.144   1.090   1.089
    81.00    1.140   1.087   1.065   1.090   1.093   1.138   1.163   1.135   1.165   1.119   1.190   1.166   1.161   1.107   1.098   1.099   1.126   1.154   1.089   1.129   1.173   1.155   1.169   1.172   1.160   1.134   1.084   1.102   1.143   1.123   1.134   1.101   1.140   1.162   1.162   1.136   1.147   1.120   1.108   1.113   1.116   1.114   1.161   1.176   1.170   1.165   1.154   1.173   1.177   1.179   1.225   1.153   1.140   1.090   1.108   1.124   1.073   1.085   1.092   1.044   1.061   1.096   1.068   1.133   1.120   1.137   1.085   1.061   1.099   1.099   1.099   1.131   1.110
    76.00    1.151   1.120   1.086   1.064   1.076   1.131   1.132   1.149   1.131   1.115   1.145   1.175   1.173   1.125   1.074   1.123   1.159   1.081   1.077   1.108   1.180   1.156   1.162   1.156   1.157   1.152   1.093   1.080   1.124   1.110   1.133   1.129   1.119   1.148   1.134   1.143   1.131   1.179   1.145   1.107   1.125   1.139   1.131   1.173   1.206   1.172   1.165   1.147   1.165   1.181   1.171   1.151   1.128   1.183   1.081   1.069   1.113   1.110   1.104   1.081   1.082   1.100   1.125   1.160   1.112   1.126   1.075   1.078   1.090   1.119   1.119   1.139   1.106
    71.00    1.179   1.137   1.068   1.044   1.070   1.105   1.126   1.144   1.104   1.084   1.095   1.144   1.140   1.140   1.142   1.155   1.119   1.152   1.115   1.125   1.113   1.146   1.114   1.112   1.132   1.145   1.140   1.121   1.104   1.072   1.114   1.112   1.176   1.121   1.124   1.196   1.174   1.181   1.161   1.165   1.144   1.121   1.186   1.191   1.208   1.172   1.148   1.157   1.154   1.127   1.151   1.139   1.131   1.195   1.123   1.151   1.135   1.101   1.063   1.081   1.166   1.155   1.165   1.187   1.117   1.162   1.096   1.078   1.110   1.115   1.089   1.118   1.093
    66.00    1.148   1.103   1.099   1.054   1.034   1.099   1.096   1.116   1.143   1.048   1.078   1.148   1.154   1.168   1.135   1.120   1.147   1.165   1.149   1.149   1.114   1.093   1.066   1.139   1.096   1.093   1.146   1.113   1.152   1.155   1.155   1.105   1.145   1.174   1.136   1.193   1.161   1.175   1.174   1.165   1.193   1.189   1.184   1.202   1.170   1.170   1.155   1.138   1.157   1.155   1.188   1.154   1.137   1.151   1.148   1.139   1.136   1.134   1.100   1.138   1.138   1.201   1.239   1.183   1.154   1.120   1.132   1.125   1.059   1.117   1.145   1.130   1.169
    61.00    1.092   1.091   1.055   1.074   1.109   1.101   1.090   1.128   1.131   1.114   1.084   1.093   1.128   1.160   1.131   1.145   1.114   1.137   1.144   1.161   1.097   1.061   1.051   1.102   1.088   1.116   1.143   1.117   1.153   1.147   1.130   1.154   1.163   1.121   1.154   1.171   1.178   1.197   1.177   1.200   1.171   1.199   1.184   1.131   1.149   1.187   1.137   1.160   1.165   1.168   1.196   1.151   1.149   1.132   1.143   1.131   1.106   1.126   1.120   1.126   1.159   1.176   1.203   1.167   1.137   1.092   1.102   1.076   1.098   1.065   1.108   1.145   1.135
    56.00    1.128   1.097   1.081   1.104   1.139   1.138   1.089   1.111   1.101   1.097   1.091   1.118   1.112   1.113   1.098   1.108   1.125   1.116   1.130   1.135   1.111   1.080   1.062   1.123   1.132   1.099   1.065   1.093   1.125   1.115   1.137   1.149   1.157   1.134   1.141   1.142   1.135   1.193   1.155   1.156   1.143   1.180   1.161   1.183   1.169   1.172   1.201   1.188   1.207   1.197   1.192   1.138   1.130   1.174   1.140   1.107   1.106   1.127   1.123   1.142   1.108   1.147   1.152   1.179   1.115   1.085   1.124   1.117   1.143   1.126   1.126   1.126   1.117
    51.00    1.138   1.102   1.057   1.112   1.137   1.139   1.104   1.120   1.164   1.104   1.124   1.107   1.122   1.110   1.086   1.115   1.101   1.093   1.128   1.159   1.119   1.122   1.090   1.125   1.123   1.084   1.063   1.080   1.096   1.128   1.132   1.154   1.143   1.131   1.178   1.163   1.186   1.197   1.132   1.113   1.130   1.112   1.136   1.155   1.177   1.153   1.207   1.220   1.204   1.213   1.165   1.166   1.179   1.192   1.166   1.098   1.109   1.181   1.170   1.124   1.086   1.064   1.097   1.141   1.129   1.117   1.106   1.087   1.154   1.147   1.112   1.106   1.124
    46.00    1.135   1.116   1.094   1.150   1.154   1.148   1.138   1.136   1.140   1.170   1.150   1.129   1.081   1.102   1.109   1.077   1.143   1.144   1.107   1.123   1.171   1.158   1.160   1.100   1.072   1.062   1.089   1.071   1.090   1.125   1.162   1.150   1.147   1.139   1.153   1.154   1.125   1.132   1.133   1.125   1.143   1.129   1.158   1.159   1.143   1.174   1.252   1.268   1.210   1.175   1.167   1.168   1.181   1.151   1.124   1.115   1.114   1.160   1.185   1.166   1.102   1.090   1.121   1.131   1.140   1.094   1.093   1.092   1.089   1.120   1.139   1.110   1.104
    41.00    1.147   1.175   1.160   1.145   1.141   1.130   1.146   1.131   1.141   1.143   1.124   1.126   1.107   1.120   1.113   1.099   1.131   1.084   1.119   1.095   1.118   1.123   1.101   1.081   1.059   1.099   1.091   1.080   1.065   1.129   1.172   1.144   1.123   1.118   1.111   1.117   1.100   1.124   1.154   1.126   1.135   1.167   1.158   1.138   1.162   1.193   1.234   1.272   1.228   1.213   1.180   1.182   1.201   1.145   1.115   1.113   1.157   1.125   1.163   1.094   1.088   1.079   1.121   1.127   1.133   1.102   1.059   1.091   1.054   1.093   1.103   1.098   1.142
    36.00    1.145   1.141   1.189   1.124   1.123   1.087   1.130   1.148   1.107   1.096   1.081   1.108   1.123   1.098   1.084   1.064   1.111   1.110   1.119   1.082   1.116   1.116   1.140   1.071   1.076   1.111   1.133   1.089   1.132   1.164   1.127   1.103   1.162   1.133   1.093   1.120   1.099   1.092   1.142   1.164   1.121   1.144   1.160   1.177   1.152   1.171   1.185   1.250   1.229   1.188   1.216   1.221   1.199   1.196   1.162   1.126   1.193   1.180   1.175   1.131   1.079   1.092   1.086   1.101   1.101   1.130   1.089   1.071   1.071   1.134   1.090   1.153   1.164
    31.00    1.141   1.161   1.131   1.117   1.102   1.100   1.150   1.212   1.118   1.148   1.125   1.089   1.094   1.094   1.094   1.078   1.116   1.119   1.148   1.141   1.116   1.146   1.122   1.120   1.128   1.131   1.109   1.141   1.121   1.129   1.117   1.111   1.123   1.126   1.148   1.127   1.114   1.133   1.132   1.168   1.114   1.136   1.162   1.181   1.130   1.162   1.226   1.266   1.233   1.210   1.189   1.194   1.226   1.195   1.152   1.151   1.172   1.157   1.196   1.127   1.072   1.075   1.086   1.111   1.145   1.155   1.126   1.105   1.070   1.079   1.167   1.157   1.150
    26.00    1.147   1.123   1.094   1.121   1.104   1.138   1.085   1.207   1.165   1.145   1.152   1.129   1.099   1.102   1.116   1.090   1.103   1.084   1.090   1.125   1.141   1.088   1.118   1.103   1.108   1.125   1.158   1.139   1.139   1.081   1.116   1.157   1.149   1.139   1.133   1.188   1.162   1.191   1.135   1.150   1.135   1.158   1.157   1.165   1.166   1.173   1.243   1.262   1.253   1.224   1.191   1.146   1.158   1.175   1.214   1.173   1.167   1.180   1.230   1.178   1.142   1.087   1.078   1.138   1.167   1.170   1.101   1.086   1.057   1.143   1.182   1.157   1.142
    21.00    1.136   1.110   1.117   1.102   1.101   1.119   1.195   1.211   1.211   1.190   1.105   1.082   1.099   1.081   1.074   1.071   1.079   1.118   1.131   1.108   1.128   1.096   1.101   1.090   1.076   1.133   1.112   1.140   1.127   1.111   1.166   1.116   1.106   1.138   1.172   1.168   1.170   1.182   1.157   1.157   1.181   1.194   1.174   1.172   1.176   1.209   1.247   1.252   1.172   1.220   1.231   1.131   1.176   1.173   1.178   1.141   1.145   1.185   1.197   1.188   1.140   1.090   1.119   1.142   1.161   1.165   1.107   1.100   1.120   1.159   1.151   1.130   1.166
    16.00    1.101   1.141   1.117   1.069   1.102   1.141   1.192   1.173   1.158   1.168   1.137   1.096   1.064   1.077   1.072   1.133   1.122   1.142   1.139   1.137   1.129   1.130   1.172   1.120   1.136   1.127   1.119   1.141   1.109   1.102   1.111   1.127   1.145   1.139   1.157   1.176   1.155   1.164   1.142   1.189   1.194   1.196   1.166   1.176   1.195   1.238   1.241   1.254   1.224   1.213   1.208   1.181   1.165   1.165   1.181   1.240   1.194   1.194   1.187   1.145   1.143   1.146   1.102   1.127   1.125   1.159   1.112   1.101   1.110   1.114   1.115   1.129   1.150
    11.00    1.101   1.182   1.159   1.076   1.089   1.147   1.152   1.167   1.161   1.096   1.112   1.069   1.062   1.090   1.143   1.108   1.114   1.138   1.095   1.107   1.111   1.172   1.178   1.134   1.149   1.111   1.067   1.123   1.088   1.053   1.076   1.139   1.114   1.113   1.121   1.105   1.114   1.138   1.133   1.179   1.194   1.161   1.138   1.231   1.182   1.234   1.209   1.252   1.249   1.218   1.209   1.255   1.188   1.202   1.214   1.181   1.210   1.166   1.151   1.147   1.148   1.139   1.121   1.108   1.123   1.124   1.124   1.097   1.125   1.140   1.097   1.122   1.172
     6.00    1.145   1.164   1.126   1.109   1.130   1.141   1.151   1.163   1.174   1.075   1.086   1.101   1.061   1.089   1.086   1.105   1.137   1.103   1.129   1.123   1.077   1.128   1.178   1.183   1.112   1.120   1.062   1.073   1.079   1.046   1.060   1.069   1.106   1.104   1.113   1.096   1.123   1.125   1.158   1.178   1.183   1.210   1.235   1.219   1.198   1.205   1.218   1.192   1.237   1.245   1.202   1.202   1.202   1.186   1.194   1.205   1.253   1.210   1.154   1.133   1.158   1.152   1.100   1.108   1.120   1.137   1.122   1.178   1.135   1.132   1.127   1.131   1.166
     1.00    1.146   1.115   1.091   1.124   1.098   1.178   1.147   1.131   1.139   1.117   1.080   1.087   1.074   1.085   1.082   1.136   1.130   1.116   1.144   1.145   1.140   1.136   1.175   1.136   1.119   1.104   1.071   1.093   1.082   1.065   1.072   1.083   1.075   1.139   1.129   1.096   1.081   1.124   1.132   1.161   1.166   1.155   1.197   1.203   1.201   1.179   1.227   1.250   1.189   1.208   1.156   1.223   1.211   1.205   1.153   1.187   1.169   1.208   1.149   1.173   1.173   1.163   1.090   1.142   1.151   1.155   1.158   1.130   1.145   1.138   1.141   1.148   1.181

   Mean standard deviation across all grid points:
      u component:    2.494 m/s
      v component:    1.798 m/s
      w component:    1.150 m/s


U-component (X) statistics from the interpolated hub point:

   Mean =  11.6748 m/s
   TI   =  26.2448 %


Processing complete.  10985 CPU seconds used.
