
This summary file was generated by TurbSim (from OpenFAST-v3.3.0) on 09-Jan-2023 at 13:48:24.


Runtime Options:

         1  Random seed #1
         7  Random seed #2
         F  Output binary HH turbulence parameters?
         F  Output formatted turbulence parameters?
         F  Output AeroDyn HH files?
         T  Output AeroDyn FF files?
         F  Output BLADED FF files?
         F  Output tower data?
         F  Output HAWC FF files?
         F  Output formatted FF files?
         T  Output coherent turbulence time step file?
 0 -  NONE  IEC turbulence models scaled to exact specified standard deviation


Turbine/Model Specifications:

        61  Vertical grid-point matrix dimension
        73  Horizontal grid-point matrix dimension
     0.100  Time step [seconds]
   600.000  Analysis time [seconds]
   600.000  Usable output time [seconds]
   151.000  Hub height [m]
   300.000  Grid height [m]
   360.000  Grid width [m]
     0.000  Vertical flow angle [degrees]
     0.000  Horizontal flow angle [degrees]


Meteorological Boundary Conditions:

    TIMESR  User-input time series spectral model
       N/A  IEC standard
       N/A  IEC turbulence characteristic
       N/A  IEC turbulence type
       N/A  IEC Extreme Turbulence Model (ETM) "c" parameter [m/s]
       PL   Wind profile type
   119.000  Reference height [m]
    11.400  Reference wind speed [m/s]
       N/A  Jet height [m]
     0.100  Power law exponent
     0.030  Surface roughness length [m]


Non-IEC Meteorological Boundary Conditions:

    45.000  Site latitude [degrees]
     0.050  Gradient Richardson number
     0.529  Friction or shear velocity [m/s]
       N/A  Mixing layer depth [m]
       N/A  Mean hub u'w' Reynolds stress
       N/A  Mean hub u'v' Reynolds stress
       N/A  Mean hub v'w' Reynolds stress


Spatial Coherence Models:

       IEC  u-component coherence model
       IEC  v-component coherence model
       IEC  w-component coherence model
(   12.000, 0.659E-03)  u-component coherence parameters
(   12.000, 0.659E-03)  v-component coherence parameters
(   12.000, 0.659E-03)  w-component coherence parameters
       N/A  Coherence exponent


Coherent Turbulence Scaling Parameters:

.\EventData
            Name of the path containing the coherent turbulence data files
       les  Type of coherent turbulence data files
     0.500  Disturbance scale (ratio of wave height to rotor diameter)
     0.500  Fractional location of tower centerline from right
     1.000  Fractional location of hub height from the bottom of the dataset
    30.000  Minimum start time for coherent structures [seconds]


Profiles from User-Defined Time-Series Input:

  Height   Wind Speed   Horizontal Angle   Vertical Angle
   (m)        (m/s)          (deg)              (deg)    
  ------   ----------   ----------------   --------------
  119.00      11.47           0.00               -0.00


You have requested that the following file(s) be generated:

   HighT8.bts (AeroDyn/TurbSim full-field wind file)


Turbulence Simulation Scaling Parameter Summary:

   Turbulence model used                            =  User-input time series
   Gradient Richardson number                       =    0.050
   Monin-Obukhov (M-O) z/L parameter                =    0.067
   Monin-Obukhov (M-O) length scale                 = 2265.000 m
   Mean wind speed at hub height                    =   11.675 m/s

   Wind profile type                                =  Power law
   Power law exponent                               =    0.100
   Mean shear across rotor disk                     =    0.018 (m/s)/m
   Assumed rotor diameter                           =  300.000 m
   Surface roughness length                         =    0.030 m

   Nyquist frequency of turbulent wind field        =    5.000 Hz

   Number of time steps in the FFT                  =     6000
   Number of time steps output                      =     6000
   Number of points simulated                       =     4454


Mean Flow Angles:

   Vertical   =   0.0 degrees
   Horizontal =   0.0 degrees

Mean Wind Speed Profile:

   Height    Wind Speed   Horizontal Angle  Vertical Angle  U-comp (X)   V-comp (Y)   W-comp (Z)
     (m)        (m/s)         (degrees)       (degrees)       (m/s)        (m/s)        (m/s)   
   ------    ----------   ----------------  --------------  ----------   ----------   ----------
    301.0       12.51            0.00            0.00         12.51         0.00         0.00
    296.0       12.49            0.00            0.00         12.49         0.00         0.00
    291.0       12.47            0.00            0.00         12.47         0.00         0.00
    286.0       12.44            0.00            0.00         12.44         0.00         0.00
    281.0       12.42            0.00            0.00         12.42         0.00         0.00
    276.0       12.40            0.00            0.00         12.40         0.00         0.00
    271.0       12.38            0.00            0.00         12.38         0.00         0.00
    266.0       12.35            0.00            0.00         12.35         0.00         0.00
    261.0       12.33            0.00            0.00         12.33         0.00         0.00
    256.0       12.31            0.00            0.00         12.31         0.00         0.00
    251.0       12.28            0.00            0.00         12.28         0.00         0.00
    246.0       12.26            0.00            0.00         12.26         0.00         0.00
    241.0       12.23            0.00            0.00         12.23         0.00         0.00
    236.0       12.21            0.00            0.00         12.21         0.00         0.00
    231.0       12.18            0.00            0.00         12.18         0.00         0.00
    226.0       12.16            0.00            0.00         12.16         0.00         0.00
    221.0       12.13            0.00            0.00         12.13         0.00         0.00
    216.0       12.10            0.00            0.00         12.10         0.00         0.00
    211.0       12.07            0.00            0.00         12.07         0.00         0.00
    206.0       12.04            0.00            0.00         12.04         0.00         0.00
    201.0       12.01            0.00            0.00         12.01         0.00         0.00
    196.0       11.98            0.00            0.00         11.98         0.00         0.00
    191.0       11.95            0.00            0.00         11.95         0.00         0.00
    186.0       11.92            0.00            0.00         11.92         0.00         0.00
    181.0       11.89            0.00            0.00         11.89         0.00         0.00
    176.0       11.85            0.00            0.00         11.85         0.00         0.00
    171.0       11.82            0.00            0.00         11.82         0.00         0.00
    166.0       11.79            0.00            0.00         11.79         0.00         0.00
    161.0       11.75            0.00            0.00         11.75         0.00         0.00
    156.0       11.71            0.00            0.00         11.71         0.00         0.00
    151.0       11.67            0.00            0.00         11.67         0.00         0.00
    146.0       11.64            0.00            0.00         11.64         0.00         0.00
    141.0       11.60            0.00            0.00         11.60         0.00         0.00
    136.0       11.55            0.00            0.00         11.55         0.00         0.00
    131.0       11.51            0.00            0.00         11.51         0.00         0.00
    126.0       11.47            0.00            0.00         11.47         0.00         0.00
    121.0       11.42            0.00            0.00         11.42         0.00         0.00
    116.0       11.37            0.00            0.00         11.37         0.00         0.00
    111.0       11.32            0.00            0.00         11.32         0.00         0.00
    106.0       11.27            0.00            0.00         11.27         0.00         0.00
    101.0       11.21            0.00            0.00         11.21         0.00         0.00
     96.0       11.16            0.00            0.00         11.16         0.00         0.00
     91.0       11.10            0.00            0.00         11.10         0.00         0.00
     86.0       11.04            0.00            0.00         11.04         0.00         0.00
     81.0       10.97            0.00            0.00         10.97         0.00         0.00
     76.0       10.90            0.00            0.00         10.90         0.00         0.00
     71.0       10.83            0.00            0.00         10.83         0.00         0.00
     66.0       10.75            0.00            0.00         10.75         0.00         0.00
     61.0       10.66            0.00            0.00         10.66         0.00         0.00
     56.0       10.57            0.00            0.00         10.57         0.00         0.00
     51.0       10.47            0.00            0.00         10.47         0.00         0.00
     46.0       10.37            0.00            0.00         10.37         0.00         0.00
     41.0       10.25            0.00            0.00         10.25         0.00         0.00
     36.0       10.12            0.00            0.00         10.12         0.00         0.00
     31.0        9.97            0.00            0.00          9.97         0.00         0.00
     26.0        9.79            0.00            0.00          9.79         0.00         0.00
     21.0        9.58            0.00            0.00          9.58         0.00         0.00
     16.0        9.33            0.00            0.00          9.33         0.00         0.00
     11.0        8.98            0.00            0.00          8.98         0.00         0.00
      6.0        8.46            0.00            0.00          8.46         0.00         0.00
      1.0        7.07            0.00            0.00          7.07         0.00         0.00


Harvested Random Seeds after Generation of the Random Numbers:

   2107445636 Harvested seed # 1
   2105889486 Harvested seed # 2


Hub-Height Simulated Turbulence Statistical Summary:

   Type of Wind        Min (m/s)   Mean (m/s)    Max (m/s)  Sigma (m/s)       TI (%)
   ----------------    ---------   ----------    ---------  -----------       ------
   Longitudinal (u)         3.36        11.67        18.92        2.330       19.960
   Lateral (v)             -6.48        -0.00         6.85        1.865       15.975
   Vertical (w)            -4.03        -0.00         3.51        1.123        9.618
   U component              3.36        11.67        18.92        2.330       19.960
   V component             -6.48        -0.00         6.85        1.865       15.975
   W component             -4.03        -0.00         3.51        1.123        9.618
   Horizontal (U&V)         4.28        11.83        18.97        2.275       19.227
   Total                    4.29        11.89        19.02        2.265       19.052

                       Min Reynolds     Mean Reynolds    Max Reynolds    Correlation
   Product             Stress (m/s)^2   Stress (m/s)^2   Stress (m/s)^2  Coefficient
   ----------------    --------------   --------------   --------------  -----------
   u'w'                    -16.187            -0.404            25.708        -0.155
   u'v'                    -31.059            -0.089            33.229        -0.020
   v'w'                    -14.650            -0.059            11.919        -0.028


   Friction Velocity (Ustar)  =      0.636 m/s
   Maximum Instantaneous TKE  =     39.663 (m/s)^2
   Maximum Instantaneous CTKE =     19.882 (m/s)^2


Grid Point Variance Summary:

   Y-coord -180.00 -175.00 -170.00 -165.00 -160.00 -155.00 -150.00 -145.00 -140.00 -135.00 -130.00 -125.00 -120.00 -115.00 -110.00 -105.00 -100.00  -95.00  -90.00  -85.00  -80.00  -75.00  -70.00  -65.00  -60.00  -55.00  -50.00  -45.00  -40.00  -35.00  -30.00  -25.00  -20.00  -15.00  -10.00   -5.00    0.00    5.00   10.00   15.00   20.00   25.00   30.00   35.00   40.00   45.00   50.00   55.00   60.00   65.00   70.00   75.00   80.00   85.00   90.00   95.00  100.00  105.00  110.00  115.00  120.00  125.00  130.00  135.00  140.00  145.00  150.00  155.00  160.00  165.00  170.00  175.00  180.00

   Height   Standard deviation at grid points for the u component:
   301.00    1.845   1.836   1.834   1.938   1.812   1.848   1.802   1.791   1.805   1.795   1.834   1.668   1.779   1.904   2.062   1.969   1.939   1.904   1.982   1.991   1.949   2.016   1.956   2.026   2.069   2.050   2.130   2.229   2.106   2.085   1.988   2.036   2.024   2.019   2.073   2.129   2.003   1.934   2.011   1.955   1.971   1.956   1.925   2.043   1.997   2.052   2.187   2.233   2.140   2.086   2.117   2.100   2.000   1.732   1.968   1.991   2.030   1.904   1.948   1.833   1.777   1.839   1.971   1.865   1.770   1.707   1.697   1.682   1.728   1.788   1.865   1.848   1.908
   296.00    1.940   1.839   2.035   2.019   1.900   1.785   1.810   1.701   1.731   1.762   1.741   1.787   1.868   1.929   2.022   1.976   1.950   1.969   1.999   1.949   1.968   1.959   2.016   2.038   2.150   2.290   2.204   2.256   2.119   2.066   1.951   2.097   2.135   2.126   2.110   2.003   1.987   2.011   2.064   2.059   2.047   1.906   1.982   1.994   1.842   1.834   2.019   2.023   2.127   2.103   2.054   2.021   2.073   1.911   1.984   2.039   2.024   1.827   1.811   1.778   1.687   1.832   1.827   1.705   1.695   1.711   1.679   1.721   1.759   1.770   1.889   1.983   1.784
   291.00    1.906   2.034   2.025   1.899   1.853   1.972   1.739   1.756   1.828   1.749   1.844   1.708   1.725   1.896   1.977   1.901   1.936   1.897   1.857   1.929   1.951   2.030   2.007   2.169   2.133   1.988   1.998   2.043   1.996   2.023   2.029   2.107   2.207   2.122   2.181   2.057   2.075   2.055   2.028   2.028   2.049   1.985   1.866   1.788   1.675   1.772   1.754   1.826   1.891   2.012   2.076   1.927   1.956   2.151   2.045   2.065   1.922   1.892   1.837   1.760   1.717   1.650   1.803   1.768   1.658   1.708   1.646   1.669   1.742   1.814   1.852   1.952   1.886
   286.00    2.006   2.053   1.957   2.038   1.911   1.856   1.941   1.893   1.888   1.829   1.784   1.699   1.692   1.798   1.959   1.909   1.919   2.056   1.957   2.068   1.961   1.939   2.113   2.123   2.013   2.003   1.903   2.014   1.944   2.024   2.179   2.296   2.207   2.231   2.310   2.365   2.214   2.059   1.991   2.048   1.911   2.026   1.892   1.736   1.777   1.811   1.849   1.895   1.779   1.857   2.028   1.905   1.954   1.953   2.049   1.950   1.834   1.938   1.911   1.855   1.663   1.695   1.923   1.912   1.808   1.879   1.813   1.804   1.845   1.827   1.923   1.917   1.948
   281.00    2.087   2.019   1.992   2.032   2.000   1.868   1.879   1.955   1.827   1.789   1.876   1.779   1.738   1.814   1.900   1.875   1.841   2.012   2.059   1.919   1.943   2.036   2.096   2.085   1.962   1.961   1.934   2.013   2.081   2.051   2.289   2.442   2.398   2.321   2.208   2.266   2.372   2.171   2.067   1.972   1.951   2.088   1.951   1.929   1.887   1.833   1.914   1.885   1.899   1.790   1.961   1.871   1.774   1.795   1.913   2.016   1.945   1.996   1.955   1.845   1.813   1.896   1.948   1.994   1.961   1.983   1.922   1.833   1.770   1.966   2.080   1.890   1.890
   276.00    2.182   2.225   2.154   2.211   2.112   2.085   1.972   1.965   1.923   1.856   1.916   1.781   1.707   1.683   1.813   1.916   2.043   2.054   1.954   1.892   1.884   1.926   1.994   2.062   1.836   2.075   2.037   2.023   2.109   2.260   2.271   2.336   2.298   2.199   1.957   2.114   2.201   2.104   2.099   2.065   2.017   2.130   2.056   2.008   1.934   1.987   1.815   1.915   2.002   1.815   1.856   1.872   1.646   1.751   1.753   1.865   1.831   1.943   1.974   1.971   1.921   1.953   1.942   2.008   2.053   2.034   1.978   1.893   1.922   2.078   1.946   1.975   1.908
   271.00    2.304   2.128   2.208   2.072   2.137   1.946   1.947   1.971   1.867   1.793   1.903   1.847   1.731   1.903   1.823   1.924   2.062   2.019   2.054   1.979   1.939   1.940   1.945   1.946   2.047   2.063   2.041   2.009   2.137   2.239   2.187   2.249   2.201   1.981   1.948   1.966   2.160   2.133   2.246   2.222   2.086   2.048   2.120   2.102   1.867   1.905   1.931   1.805   1.857   1.891   1.868   1.754   1.661   1.755   1.876   1.915   1.910   1.908   2.092   2.086   2.012   2.034   1.977   2.064   1.897   2.105   2.178   2.094   2.067   2.141   2.005   1.821   1.719
   266.00    2.369   2.201   2.127   2.033   1.986   1.924   1.906   1.860   1.856   1.882   1.989   1.876   1.810   1.886   2.078   2.016   1.959   2.063   2.066   2.067   1.988   2.052   1.898   1.972   2.042   1.998   2.118   1.954   2.008   2.152   2.100   2.294   2.317   2.123   1.997   2.194   2.204   2.170   2.244   2.402   2.201   2.048   2.017   2.112   2.084   1.910   1.902   1.954   2.045   1.800   1.930   1.896   1.718   1.800   1.949   1.883   1.889   1.938   2.083   2.144   2.003   1.943   1.934   1.957   2.020   2.128   2.072   2.130   2.150   2.195   2.013   1.874   1.777
   261.00    2.316   2.146   2.120   2.017   1.922   1.954   2.114   1.939   1.896   1.958   1.930   2.110   2.124   2.120   2.032   2.028   2.095   2.156   2.181   2.200   2.145   2.063   1.974   2.033   2.021   2.027   2.065   2.197   2.066   2.218   2.308   2.379   2.319   2.156   2.224   2.240   2.262   2.456   2.489   2.347   2.320   2.248   2.154   2.054   2.132   2.057   1.943   1.865   2.021   1.913   1.867   1.840   1.921   1.838   1.917   1.840   1.897   1.872   2.014   2.089   1.932   2.010   2.066   2.052   2.062   2.067   2.132   2.045   2.063   2.107   2.005   1.958   1.755
   256.00    2.253   2.238   2.097   2.046   1.990   1.892   1.938   2.072   2.084   1.920   2.096   2.039   2.218   2.008   2.122   2.069   2.197   2.218   2.198   2.171   2.036   2.144   2.195   2.162   2.151   2.166   2.188   2.182   2.110   2.177   2.309   2.453   2.442   2.369   2.317   2.446   2.331   2.490   2.462   2.320   2.511   2.336   2.259   2.257   2.285   2.166   2.076   1.980   2.101   1.979   2.054   1.901   1.947   1.885   1.939   1.798   1.923   1.905   1.895   2.015   1.992   2.206   1.991   2.079   1.954   1.926   2.079   1.944   1.937   1.931   1.937   1.954   1.760
   251.00    2.124   2.239   2.302   2.229   2.104   2.055   2.070   2.127   2.112   2.028   2.310   2.204   2.244   2.132   2.084   2.064   2.234   2.200   2.225   2.160   2.130   2.137   2.168   2.147   2.231   2.144   2.144   2.178   2.173   2.233   2.419   2.385   2.532   2.520   2.371   2.263   2.348   2.323   2.481   2.485   2.499   2.281   2.305   2.228   2.251   2.222   2.102   2.014   2.264   2.216   2.142   2.041   1.952   1.874   1.957   1.843   1.883   1.892   1.968   1.843   2.011   2.010   2.093   2.133   2.084   2.011   2.004   2.002   1.901   2.024   1.849   1.952   1.906
   246.00    2.048   2.188   2.270   2.227   2.209   2.158   2.075   2.279   2.307   2.255   2.300   2.339   2.331   2.230   2.164   2.046   2.169   2.171   2.329   2.117   2.035   2.080   2.064   2.000   2.121   2.282   2.137   2.170   2.182   2.152   2.417   2.581   2.571   2.541   2.588   2.450   2.379   2.389   2.408   2.660   2.410   2.377   2.319   2.177   2.194   2.191   2.067   2.194   2.309   2.215   2.200   2.122   1.971   1.820   2.020   1.949   1.893   1.871   1.934   1.951   1.892   2.018   2.009   1.967   1.823   1.821   1.923   2.003   2.027   2.078   2.095   2.036   1.879
   241.00    2.096   2.145   2.162   2.303   2.423   2.300   2.401   2.539   2.483   2.356   2.396   2.203   2.296   2.293   2.184   2.079   2.243   2.224   2.218   2.051   2.020   2.075   2.013   2.017   1.992   2.019   2.207   2.206   2.191   2.332   2.379   2.456   2.478   2.457   2.624   2.479   2.544   2.494   2.644   2.572   2.410   2.312   2.259   2.151   2.124   2.171   2.212   2.238   2.249   2.172   2.271   2.086   2.038   1.906   1.941   1.936   1.938   1.822   1.898   1.918   1.918   1.882   1.959   1.835   1.715   1.847   1.947   1.853   1.902   2.032   1.985   2.092   1.956
   236.00    2.151   2.265   2.183   2.299   2.285   2.282   2.298   2.297   2.338   2.538   2.330   2.288   2.149   2.119   2.072   2.148   2.158   2.210   2.059   2.134   2.185   2.065   2.030   1.950   1.798   1.871   1.986   2.155   2.268   2.454   2.479   2.546   2.397   2.522   2.462   2.488   2.566   2.621   2.653   2.571   2.423   2.326   2.277   2.089   2.074   2.086   2.274   2.158   2.144   2.201   2.091   2.044   2.252   2.059   1.948   1.845   1.878   1.850   1.895   1.865   1.795   1.842   1.944   1.906   1.824   1.777   1.886   1.792   1.824   1.945   1.983   1.944   1.983
   231.00    2.096   2.152   2.230   2.287   2.315   2.341   2.170   2.231   2.315   2.433   2.247   2.148   2.123   2.125   2.034   2.049   2.088   2.014   2.179   2.203   2.099   2.179   2.095   2.002   1.887   1.850   2.118   2.136   2.274   2.292   2.298   2.286   2.385   2.329   2.439   2.313   2.525   2.770   2.569   2.404   2.152   2.134   2.219   2.095   2.103   2.235   2.226   2.046   2.005   2.042   2.055   2.051   2.069   2.036   1.904   1.876   1.807   1.831   1.870   1.854   1.760   1.833   1.857   1.846   1.769   1.822   1.900   1.863   1.882   1.830   1.921   1.928   1.880
   226.00    2.242   2.251   2.196   2.382   2.210   2.136   2.107   2.149   2.145   2.076   2.191   2.116   1.957   2.060   2.030   1.989   2.092   2.116   2.138   2.330   2.262   2.253   2.257   2.096   2.038   2.066   2.110   2.249   2.166   2.179   2.221   2.148   2.163   2.349   2.405   2.333   2.448   2.735   2.638   2.378   2.182   2.191   2.140   2.039   2.092   2.169   1.992   2.023   1.934   2.116   2.181   1.982   2.084   2.054   1.845   1.823   1.811   1.889   1.800   1.932   1.802   1.859   1.876   1.859   1.767   1.767   1.929   1.918   1.914   1.807   1.898   1.927   1.993
   221.00    2.385   2.352   2.201   2.281   2.117   2.336   2.191   2.186   2.091   2.134   2.070   2.180   2.006   2.116   2.022   2.076   2.148   2.166   2.244   2.233   2.195   2.285   2.321   2.269   2.258   2.231   2.257   2.181   2.118   2.106   2.069   2.149   2.081   2.208   2.349   2.285   2.439   2.562   2.533   2.462   2.293   2.219   2.180   2.192   2.114   2.046   2.086   2.164   2.196   2.099   2.138   2.068   2.045   2.015   1.896   1.825   1.882   1.895   1.887   1.827   1.834   1.913   1.919   1.890   2.044   1.940   2.004   1.923   1.795   1.793   1.875   1.957   2.075
   216.00    2.191   2.192   2.109   2.307   2.167   2.211   2.188   2.074   2.097   2.066   2.130   2.182   2.104   2.052   2.163   2.221   2.257   2.272   2.188   2.150   2.236   2.434   2.387   2.331   2.269   2.310   2.334   2.202   2.219   2.112   2.169   2.141   2.181   2.313   2.337   2.274   2.355   2.544   2.486   2.390   2.439   2.385   2.163   2.086   2.128   2.045   2.048   2.077   2.067   2.144   2.143   2.291   2.207   2.004   2.044   1.983   2.010   1.948   1.838   1.871   1.895   1.895   1.842   1.989   2.114   2.055   1.903   1.977   1.865   1.835   1.895   1.916   1.829
   211.00    2.210   2.032   2.049   2.191   2.206   2.042   2.197   2.253   2.161   2.154   2.115   2.138   2.146   2.190   2.198   2.094   2.161   2.277   2.148   2.096   2.325   2.370   2.366   2.281   2.092   2.193   2.251   2.181   2.179   2.107   2.125   2.192   2.152   2.232   2.223   2.158   2.089   2.214   2.360   2.404   2.327   2.281   2.117   2.167   2.203   2.036   2.207   2.256   2.245   2.181   2.176   2.273   2.177   2.041   2.031   2.017   2.117   2.084   2.068   2.012   1.925   1.959   2.015   1.974   1.963   1.912   1.853   1.870   1.962   1.949   1.906   1.980   1.814
   206.00    2.266   2.152   2.147   2.139   2.191   2.219   2.261   2.265   2.240   2.100   2.087   2.255   2.185   2.097   2.106   2.089   2.023   2.113   2.051   2.133   2.335   2.534   2.518   2.418   2.248   2.247   2.324   2.345   2.130   2.098   2.104   2.173   2.271   2.193   2.177   2.081   2.006   2.300   2.291   2.352   2.458   2.300   2.279   2.091   2.242   2.114   2.300   2.336   2.215   2.204   2.104   2.155   2.155   2.238   2.087   2.095   2.150   2.197   2.127   2.058   2.097   2.028   2.097   1.904   1.948   1.859   1.861   1.788   1.771   1.967   1.999   2.045   1.988
   201.00    2.230   2.297   2.212   2.179   2.191   2.141   2.279   2.308   2.281   2.237   2.185   2.184   2.163   2.226   2.141   2.103   2.156   2.162   2.194   2.226   2.412   2.445   2.499   2.488   2.335   2.245   2.281   2.128   2.067   2.055   2.052   2.222   2.189   2.260   2.171   2.141   2.125   2.323   2.439   2.406   2.229   2.113   2.258   2.230   2.151   2.166   2.194   2.182   2.250   2.235   2.098   2.156   2.127   2.143   2.066   1.992   2.177   2.333   2.306   2.083   2.154   2.033   2.122   2.040   1.909   1.903   1.738   1.852   1.727   1.940   2.006   2.062   1.975
   196.00    2.193   2.284   2.161   2.132   2.302   2.339   2.236   2.413   2.288   2.270   2.183   2.192   2.210   2.268   2.253   2.253   2.189   2.231   2.227   2.292   2.398   2.475   2.527   2.280   2.298   2.198   2.185   2.145   2.241   2.169   2.211   2.166   2.276   2.251   2.165   2.124   2.346   2.488   2.482   2.363   2.092   2.084   2.094   2.002   2.047   2.154   2.005   2.277   2.332   2.169   2.210   2.244   2.307   2.156   2.249   2.184   2.084   2.173   2.132   2.168   1.999   2.017   2.045   1.894   1.787   1.952   1.726   1.754   1.783   1.821   1.819   1.938   1.850
   191.00    2.075   2.303   2.217   2.300   2.222   2.319   2.282   2.323   2.416   2.427   2.348   2.257   2.354   2.280   2.179   2.105   2.120   2.155   2.356   2.357   2.302   2.313   2.300   2.340   2.260   2.285   2.217   2.267   2.354   2.242   2.174   2.246   2.358   2.124   2.103   2.158   2.184   2.403   2.491   2.194   2.053   2.055   1.976   2.019   1.931   2.114   2.014   2.167   2.265   2.138   2.289   2.225   2.211   2.362   2.420   2.162   2.131   2.102   1.984   2.089   2.015   2.092   1.819   1.823   1.818   1.835   1.676   1.714   1.669   1.727   1.813   1.948   1.987
   186.00    1.968   1.912   2.198   2.274   2.380   2.368   2.459   2.390   2.366   2.500   2.304   2.258   2.386   2.276   2.234   2.237   2.143   2.171   2.229   2.158   2.277   2.052   2.287   2.437   2.247   2.317   2.281   2.235   2.337   2.311   2.208   2.280   2.301   2.129   2.067   2.254   2.398   2.475   2.500   2.257   2.110   2.039   1.981   2.018   1.934   2.026   2.162   2.065   2.162   2.062   2.262   2.251   2.217   2.359   2.282   2.197   2.159   2.070   1.912   2.016   2.084   2.079   1.819   1.890   1.798   1.856   1.700   1.723   1.740   1.743   1.821   2.053   1.999
   181.00    1.837   1.871   2.009   2.155   2.355   2.432   2.462   2.374   2.545   2.417   2.342   2.440   2.290   2.256   2.098   2.213   2.076   2.171   2.246   2.220   2.187   2.050   2.395   2.314   2.375   2.210   2.133   2.233   2.220   2.163   2.249   2.259   2.211   2.197   2.231   2.310   2.460   2.437   2.436   2.394   2.211   2.033   2.151   2.023   2.037   2.106   1.963   1.986   2.124   2.036   2.090   2.136   2.319   2.375   2.217   2.025   2.035   1.915   1.986   2.100   2.173   2.094   1.889   1.822   1.737   1.683   1.630   1.707   1.782   1.919   1.912   2.063   2.076
   176.00    1.798   1.849   1.990   2.122   2.229   2.344   2.432   2.388   2.304   2.379   2.364   2.360   2.350   2.220   2.158   2.090   2.180   2.098   2.037   2.033   2.118   2.107   2.337   2.326   2.374   2.368   2.279   2.074   2.172   2.270   2.240   2.228   2.195   2.368   2.361   2.369   2.492   2.447   2.555   2.313   2.153   1.994   1.956   2.055   2.118   1.944   2.006   2.021   2.133   2.079   2.132   2.086   2.273   2.429   2.320   2.156   2.127   1.901   1.994   2.038   2.087   2.033   2.072   1.917   1.704   1.578   1.581   1.765   1.778   2.025   1.915   2.079   2.185
   171.00    1.819   1.977   1.954   1.977   2.217   2.261   2.378   2.148   2.331   2.352   2.326   2.358   2.326   2.286   2.141   2.086   2.124   2.092   1.871   1.944   2.078   1.936   2.130   2.289   2.290   2.327   2.399   2.240   2.255   2.305   2.213   2.242   2.348   2.510   2.471   2.368   2.493   2.311   2.372   2.347   2.155   2.042   2.028   2.026   2.064   2.030   1.951   1.944   2.164   2.037   2.192   2.028   2.148   2.346   2.327   2.225   2.254   1.993   1.969   1.956   1.881   1.987   1.848   1.738   1.615   1.556   1.552   1.795   1.743   1.837   1.970   2.087   2.192
   166.00    1.937   1.866   1.950   2.105   2.096   2.134   2.311   2.306   2.237   2.310   2.348   2.446   2.278   2.306   2.279   2.240   1.944   1.905   1.940   1.877   1.969   2.089   2.088   2.208   2.216   2.289   2.383   2.328   2.404   2.342   2.284   2.308   2.391   2.403   2.409   2.286   2.268   2.343   2.289   2.211   2.145   2.011   2.053   2.147   2.071   1.991   1.885   1.870   2.180   2.048   2.126   2.083   2.148   2.271   2.356   2.307   2.348   2.079   1.935   2.081   1.988   2.005   1.888   1.778   1.692   1.523   1.653   1.740   1.695   1.824   1.973   2.190   2.192
   161.00    1.998   2.003   2.158   2.132   2.108   2.163   2.263   2.350   2.427   2.450   2.488   2.457   2.294   2.344   2.276   2.023   1.972   1.836   1.931   1.860   2.084   2.048   2.168   2.262   2.291   2.384   2.425   2.332   2.356   2.348   2.445   2.406   2.392   2.324   2.259   2.286   2.396   2.333   2.202   2.122   2.167   1.936   1.918   2.056   1.970   2.149   2.035   2.048   2.178   2.115   1.931   2.013   2.218   2.379   2.411   2.274   2.331   2.122   2.178   2.118   1.991   1.919   1.893   1.816   1.853   1.628   1.647   1.753   1.798   1.886   1.990   2.126   2.209
   156.00    2.037   2.229   2.270   1.999   1.970   2.269   2.367   2.380   2.380   2.369   2.298   2.258   2.228   2.211   2.052   1.892   1.881   1.805   1.883   1.863   2.055   2.041   2.061   2.195   2.205   2.273   2.365   2.356   2.275   2.331   2.354   2.468   2.393   2.231   2.198   2.198   2.351   2.141   2.073   2.046   1.959   2.074   2.042   2.086   2.178   2.146   2.163   2.081   2.181   2.218   2.160   2.100   2.287   2.280   2.242   2.176   2.107   2.031   2.088   2.157   2.000   1.892   1.920   1.918   1.755   1.790   1.708   1.613   1.589   1.830   2.051   2.001   1.994
   151.00    2.191   2.300   2.270   2.121   2.191   2.264   2.438   2.418   2.261   2.297   2.355   2.188   2.262   2.168   1.972   1.984   1.862   1.742   1.927   1.936   1.985   2.115   2.203   2.204   2.201   2.191   2.220   2.343   2.173   2.272   2.204   2.383   2.469   2.314   2.172   2.158   2.330   2.171   2.097   2.031   1.848   1.918   2.170   2.040   2.155   2.035   1.964   2.110   2.208   2.320   2.294   2.095   2.191   2.214   2.271   2.071   2.076   2.133   2.274   2.215   2.050   2.040   2.061   2.032   1.865   1.820   1.666   1.736   1.706   1.842   1.878   1.959   1.990
   146.00    2.301   2.422   2.447   2.432   2.406   2.487   2.402   2.399   2.382   2.327   2.420   2.252   2.361   2.312   2.173   2.061   1.882   1.918   1.882   1.935   1.949   2.068   2.187   2.140   2.205   2.114   2.207   2.295   2.290   2.174   2.281   2.318   2.411   2.300   2.071   2.175   2.246   2.322   2.202   2.160   1.972   2.057   2.234   2.140   2.068   2.158   2.008   2.087   2.091   2.257   2.105   2.119   2.099   2.261   2.278   2.159   1.995   2.110   2.121   1.999   2.011   1.932   1.855   2.039   1.884   1.961   1.890   1.830   1.769   1.903   1.849   1.847   1.936
   141.00    2.485   2.605   2.547   2.502   2.495   2.283   2.254   2.178   2.282   2.286   2.446   2.308   2.354   2.229   2.191   1.970   1.939   2.074   1.833   1.914   2.007   2.119   2.076   2.173   2.229   2.050   2.100   2.300   2.396   2.152   2.377   2.371   2.458   2.422   2.213   2.183   2.252   2.302   2.275   2.136   2.103   2.211   2.062   2.182   2.105   2.033   2.077   2.181   2.104   2.047   1.986   2.121   2.091   2.208   2.311   2.127   2.082   2.041   2.014   1.860   1.896   1.827   1.792   1.844   1.999   1.955   1.838   1.877   1.791   1.771   1.743   1.881   2.081
   136.00    2.422   2.423   2.312   2.373   2.328   2.225   2.054   2.022   2.082   2.297   2.380   2.377   2.369   2.253   2.133   2.172   2.122   2.000   2.085   2.057   1.979   2.024   2.114   2.208   2.148   2.055   2.163   2.377   2.469   2.309   2.381   2.421   2.349   2.548   2.317   2.146   2.333   2.377   2.210   2.275   2.148   2.251   2.144   2.067   1.997   2.013   2.110   2.133   2.188   2.087   2.075   2.097   2.149   2.376   2.463   2.280   2.114   2.065   1.971   1.783   1.758   1.921   1.867   1.797   1.913   1.848   1.980   1.988   1.726   1.752   1.784   1.855   1.994
   131.00    2.399   2.259   2.293   2.199   2.198   2.170   2.002   2.012   2.018   2.173   2.462   2.512   2.490   2.375   2.276   2.244   2.080   1.968   2.021   2.068   2.029   2.113   2.100   2.184   2.183   2.047   2.097   2.363   2.393   2.312   2.376   2.328   2.341   2.358   2.351   2.234   2.289   2.283   2.064   2.278   2.246   2.237   2.203   2.259   2.000   2.098   2.191   2.161   2.098   2.171   2.222   2.301   2.286   2.364   2.383   2.340   2.162   2.082   2.018   1.849   1.832   1.919   1.904   1.972   1.851   1.851   1.899   1.969   1.808   1.846   1.814   1.996   2.121
   126.00    2.311   2.238   2.201   2.192   2.219   2.232   2.028   1.966   2.039   2.233   2.390   2.322   2.316   2.413   2.321   2.239   2.049   2.139   2.025   1.905   2.005   1.947   2.021   2.179   2.157   2.236   2.331   2.422   2.397   2.223   2.234   2.300   2.318   2.257   2.162   2.186   2.187   2.086   2.012   2.071   2.256   2.008   1.976   2.158   2.160   2.188   2.275   2.138   2.117   2.307   2.317   2.355   2.480   2.489   2.320   2.320   2.235   2.029   1.915   1.746   1.922   1.936   1.893   1.863   1.867   1.812   1.882   1.871   1.952   1.933   1.928   1.911   2.050
   121.00    2.212   2.217   2.183   2.136   2.161   2.059   2.056   2.107   2.126   2.147   2.390   2.365   2.397   2.360   2.295   2.283   2.171   2.178   2.178   1.968   1.976   1.992   2.080   2.141   2.257   2.132   2.375   2.445   2.450   2.199   2.322   2.404   2.216   2.352   2.260   2.186   2.178   2.108   2.108   2.171   2.184   1.935   2.067   2.075   2.278   2.357   2.255   2.102   2.213   2.262   2.315   2.287   2.471   2.479   2.504   2.474   2.309   2.044   2.009   1.927   1.838   1.914   1.889   1.894   1.836   1.775   1.787   1.922   2.048   2.059   1.955   1.961   2.106
   116.00    2.175   2.042   2.122   2.290   2.264   2.088   2.106   2.130   2.126   2.123   2.299   2.441   2.488   2.410   2.422   2.322   2.398   2.303   2.261   2.370   2.064   2.119   2.089   2.074   2.108   2.052   2.298   2.347   2.441   2.666   2.428   2.417   2.275   2.328   2.323   2.229   2.191   2.142   2.115   2.147   2.225   2.101   2.085   2.094   2.211   2.328   2.106   2.144   2.365   2.586   2.536   2.439   2.462   2.486   2.591   2.375   2.259   2.112   1.921   1.927   1.931   1.912   1.810   1.807   1.827   1.708   1.663   1.850   2.046   2.079   2.003   2.169   2.051
   111.00    2.204   2.083   2.313   2.433   2.179   2.199   2.061   2.156   2.258   2.209   2.232   2.477   2.431   2.249   2.278   2.282   2.361   2.292   2.219   2.168   2.176   2.190   2.097   2.102   1.949   2.034   2.275   2.423   2.448   2.603   2.417   2.531   2.403   2.281   2.246   2.337   2.347   2.347   2.171   2.176   2.115   2.118   2.181   2.117   2.139   2.299   2.126   2.203   2.402   2.554   2.648   2.565   2.437   2.414   2.497   2.325   2.362   2.148   1.971   2.059   1.942   1.784   1.783   1.802   1.777   1.632   1.769   1.931   2.098   2.141   2.245   2.188   2.059
   106.00    2.233   2.028   2.210   2.176   2.126   2.236   2.208   2.165   2.344   2.366   2.394   2.462   2.155   2.277   2.241   2.270   2.216   2.326   2.278   2.172   2.195   2.105   2.241   2.271   2.062   2.247   2.374   2.514   2.476   2.519   2.452   2.413   2.359   2.191   2.214   2.345   2.431   2.322   2.176   2.246   1.985   2.137   2.295   2.217   2.287   2.206   2.050   2.048   2.288   2.516   2.447   2.502   2.426   2.293   2.447   2.233   2.262   2.205   2.106   2.026   2.008   1.811   1.767   1.773   1.838   1.815   1.901   2.165   2.270   2.243   2.098   2.260   2.219
   101.00    2.216   2.010   2.124   2.104   2.076   2.156   2.388   2.125   2.154   2.192   2.285   2.310   2.130   2.140   2.054   2.195   2.182   2.151   2.191   2.067   2.092   2.032   2.155   2.157   2.142   2.250   2.364   2.537   2.503   2.540   2.253   2.230   2.338   2.353   2.209   2.170   2.155   2.230   2.051   2.142   1.990   2.071   2.251   2.159   2.209   2.213   2.100   2.112   2.179   2.278   2.485   2.394   2.241   2.303   2.350   2.335   2.396   2.213   2.038   1.884   1.866   1.982   1.804   1.827   1.888   1.913   2.034   2.188   2.247   2.334   2.363   2.230   2.349
    96.00    2.175   2.100   2.179   2.105   2.140   2.069   2.151   2.151   2.206   2.211   2.152   2.156   2.082   2.154   2.017   2.075   2.113   2.218   2.244   2.159   2.090   1.994   2.072   2.064   2.078   2.206   2.400   2.382   2.612   2.396   2.288   2.268   2.422   2.416   2.392   2.148   2.036   2.053   2.022   2.158   2.032   2.109   2.214   2.272   2.221   2.244   2.120   2.133   2.128   2.351   2.368   2.347   2.326   2.358   2.282   2.371   2.414   2.109   1.971   1.949   1.930   2.056   1.915   1.820   2.017   2.057   2.207   2.234   2.297   2.342   2.296   2.206   2.339
    91.00    2.243   2.164   2.222   2.248   2.304   2.199   2.126   2.172   2.199   2.164   2.073   2.050   2.064   2.081   2.137   2.064   2.217   2.198   2.254   2.183   2.244   1.973   1.982   1.830   2.047   2.130   2.336   2.400   2.498   2.501   2.306   2.323   2.357   2.494   2.371   2.171   2.041   2.111   2.070   2.002   2.057   2.002   2.157   2.194   2.203   2.110   2.131   2.134   2.034   2.070   2.097   2.403   2.377   2.136   2.254   2.307   2.222   2.094   2.034   1.874   1.942   2.081   1.925   1.881   2.016   2.128   2.176   2.335   2.265   2.373   2.467   2.461   2.333
    86.00    2.165   2.095   2.156   2.165   2.315   2.147   2.031   2.141   2.112   2.073   1.890   1.935   2.030   2.026   2.019   2.172   2.320   2.201   2.349   2.379   2.284   2.163   2.198   1.992   2.060   2.141   2.271   2.357   2.286   2.382   2.380   2.172   2.301   2.393   2.445   2.110   2.141   2.138   2.051   2.079   2.125   2.058   2.070   2.203   2.124   1.971   1.993   2.047   2.056   2.158   2.227   2.154   2.280   2.300   2.207   2.151   2.113   2.049   1.849   1.808   1.800   2.001   2.045   2.049   2.087   2.182   2.339   2.364   2.400   2.409   2.360   2.445   2.547
    81.00    2.216   2.131   2.157   2.074   2.286   2.270   2.241   2.159   2.150   1.906   1.940   2.081   1.980   2.114   2.248   2.223   2.073   2.150   2.180   2.286   2.271   2.256   2.042   2.006   2.056   2.171   2.283   2.458   2.481   2.483   2.309   2.268   2.263   2.242   2.322   2.209   2.111   2.098   2.085   2.151   1.993   2.043   1.961   2.025   2.053   2.030   1.898   2.027   2.073   2.090   2.088   1.990   2.186   2.070   1.910   1.876   1.836   1.750   1.730   1.860   1.762   1.932   2.004   1.987   2.033   2.215   2.312   2.415   2.417   2.447   2.397   2.427   2.369
    76.00    2.021   2.036   2.179   2.278   2.084   2.073   2.224   2.175   2.040   2.059   2.043   1.948   1.912   1.961   2.126   2.060   2.069   2.114   2.181   2.185   2.262   2.194   2.100   2.065   2.020   2.279   2.350   2.307   2.324   2.288   2.360   2.324   2.247   2.172   2.149   2.117   2.116   2.035   2.066   2.164   1.995   2.165   2.020   1.982   1.946   1.936   1.929   1.946   1.951   1.861   1.846   1.881   1.983   1.907   1.886   1.763   1.816   1.783   1.828   1.735   2.009   2.102   2.290   2.172   2.237   2.446   2.347   2.386   2.453   2.348   2.448   2.342   2.355
    71.00    2.096   2.059   2.161   2.268   2.141   2.150   2.179   2.298   2.224   2.142   1.946   1.919   1.954   2.053   1.920   2.165   2.011   2.058   2.116   2.249   2.184   2.235   2.223   2.057   2.153   2.163   2.201   2.145   2.358   2.308   2.271   2.258   2.255   2.204   2.193   2.294   2.281   2.064   2.069   2.058   2.064   2.210   1.966   1.943   1.895   1.919   1.868   1.768   1.773   1.748   1.910   1.897   1.865   1.780   1.805   1.848   1.697   1.802   1.755   1.873   1.848   2.042   2.438   2.353   2.423   2.264   2.273   2.370   2.372   2.282   2.399   2.368   2.337
    66.00    2.045   2.032   2.177   2.156   2.221   2.128   2.176   2.115   2.170   1.960   1.898   1.859   1.933   1.914   1.857   1.933   2.063   2.055   2.116   2.082   2.073   2.111   2.249   2.030   2.036   2.083   1.984   2.143   2.252   2.274   2.262   2.389   2.347   2.242   2.236   2.345   2.367   2.289   2.183   2.189   2.083   2.214   2.125   2.052   1.875   1.853   1.896   1.848   1.741   1.760   1.865   1.891   1.816   1.736   1.800   1.829   1.709   1.761   1.780   1.931   2.003   2.115   2.230   2.296   2.361   2.353   2.315   2.230   2.202   2.174   2.281   2.502   2.455
    61.00    1.878   1.677   1.948   2.043   2.195   2.128   2.066   2.194   2.077   1.972   1.873   1.930   1.903   1.960   1.890   1.841   1.992   2.152   2.048   2.121   2.082   2.226   2.181   1.942   2.033   2.017   2.139   2.123   2.283   2.236   2.271   2.378   2.254   2.155   2.080   2.146   2.275   2.139   2.143   2.319   2.179   2.161   2.235   2.134   2.011   1.958   1.964   1.899   1.787   1.854   1.770   1.848   1.849   1.643   1.668   1.744   1.766   1.793   1.780   1.909   1.974   2.111   2.144   2.177   2.279   2.424   2.330   2.160   2.159   2.113   2.288   2.382   2.415
    56.00    1.784   1.729   1.855   1.936   2.024   1.973   2.065   2.174   2.203   1.984   1.870   1.867   1.990   2.002   1.825   1.856   2.014   2.036   1.914   2.002   1.992   2.093   2.091   1.947   2.032   2.002   2.155   2.125   2.172   2.253   2.345   2.268   2.158   1.953   2.023   2.141   2.256   2.242   2.253   2.341   2.288   2.215   2.167   2.140   1.928   1.947   1.784   1.791   1.832   1.913   1.884   1.838   1.868   1.744   1.670   1.752   1.867   1.904   1.942   1.748   2.038   2.172   2.111   2.158   2.300   2.413   2.410   2.328   2.228   2.267   2.267   2.226   2.311
    51.00    1.673   1.696   1.848   1.962   2.046   2.001   2.235   2.150   2.204   2.021   1.867   1.908   1.906   2.028   1.853   1.895   1.983   2.046   2.029   2.000   1.992   1.898   1.921   1.912   2.025   2.060   2.065   2.141   2.123   2.225   2.325   2.178   2.141   1.960   1.979   2.217   2.166   2.352   2.185   2.212   2.187   2.130   2.101   2.080   1.975   1.793   1.716   1.780   1.748   1.889   1.846   1.923   1.795   1.857   1.673   1.700   1.820   1.953   1.982   1.896   1.990   2.004   2.163   2.109   2.216   2.250   2.268   2.288   2.205   2.359   2.298   2.201   2.329
    46.00    1.726   1.785   1.875   2.050   1.982   2.120   2.161   2.188   2.194   2.273   2.108   2.024   1.978   2.102   1.907   1.926   1.903   1.951   1.976   1.968   1.848   1.898   1.870   1.860   1.986   1.997   2.013   2.025   2.098   2.097   2.208   2.178   2.066   2.077   2.105   2.112   2.171   2.165   2.104   2.026   2.036   2.014   2.082   2.045   1.969   2.033   1.878   1.846   1.865   1.940   1.845   1.862   1.727   1.831   1.762   1.701   1.877   1.935   1.951   1.893   2.087   2.091   2.196   2.242   2.251   2.263   2.185   2.190   2.215   2.266   2.394   2.383   2.281
    41.00    1.817   1.754   1.860   1.953   2.005   2.074   1.991   2.116   2.066   2.240   2.123   2.012   1.935   2.056   1.924   1.956   1.892   1.857   1.834   1.859   1.731   1.764   1.743   1.948   1.907   1.979   2.086   2.036   2.023   2.227   2.235   2.081   2.071   2.020   2.167   2.037   1.977   1.946   1.972   1.905   1.987   1.998   2.006   1.988   2.090   1.913   1.819   1.695   1.768   1.878   1.867   1.954   1.900   1.760   1.846   1.813   1.873   1.772   1.768   1.836   2.059   2.146   2.115   2.141   2.083   2.045   2.041   2.206   2.404   2.307   2.472   2.481   2.426
    36.00    1.826   1.786   1.726   1.844   1.899   1.980   1.980   1.968   2.080   1.978   2.086   2.154   2.097   2.132   2.061   2.077   2.015   1.941   1.775   1.952   1.984   1.812   1.776   1.714   1.879   1.930   2.015   1.989   1.999   2.170   2.170   2.268   2.054   2.173   2.107   1.972   1.896   1.849   1.839   1.971   2.014   1.980   2.047   1.809   1.899   1.841   1.711   1.714   1.742   1.818   1.864   1.911   2.059   1.968   1.881   1.817   1.873   1.773   1.794   1.818   1.883   2.001   1.958   2.025   2.021   2.105   2.011   2.060   2.178   2.229   2.151   2.382   2.390
    31.00    1.805   1.847   1.785   1.950   1.996   1.935   2.090   2.145   2.044   2.139   2.012   2.028   2.069   2.040   2.025   2.006   2.016   1.973   1.913   2.044   1.967   1.871   1.798   1.692   1.695   1.946   2.086   2.063   2.040   2.060   2.213   2.175   2.318   2.101   2.094   1.981   1.910   1.775   1.882   2.018   1.986   1.904   2.002   1.913   1.962   1.768   1.607   1.709   1.829   1.916   1.954   2.175   2.191   2.142   1.955   1.769   1.814   1.877   1.870   1.938   1.972   2.045   1.898   1.934   1.975   1.982   2.086   2.044   2.236   2.222   2.346   2.438   2.414
    26.00    1.744   1.893   1.778   1.962   2.044   2.056   2.099   1.998   1.982   2.164   2.021   2.090   1.941   1.921   2.050   2.015   1.911   2.078   2.189   2.259   2.079   1.996   1.807   1.707   1.784   1.971   2.177   2.229   2.011   1.991   2.208   2.352   2.296   2.187   2.077   1.937   1.866   1.909   2.092   2.124   2.095   1.974   1.903   1.959   1.940   1.777   1.696   1.783   1.674   1.897   1.968   2.157   2.256   2.266   1.985   1.889   1.933   1.830   1.987   1.986   2.037   2.018   1.894   1.832   2.000   2.066   2.053   2.112   2.213   2.322   2.408   2.462   2.467
    21.00    1.820   1.868   1.912   1.850   2.016   1.888   2.025   1.982   2.033   1.990   2.027   1.907   1.991   2.140   1.963   2.081   2.023   2.043   2.161   2.151   2.115   2.076   2.000   1.893   1.968   1.965   2.124   2.184   2.090   2.131   2.151   2.217   2.320   2.230   2.129   1.975   1.972   2.000   2.096   2.115   2.154   2.156   2.008   2.159   1.920   1.795   1.794   1.805   1.899   1.977   1.929   1.955   2.079   2.088   2.038   1.920   1.876   2.019   1.987   1.979   2.056   2.108   1.953   1.972   2.055   2.254   2.088   2.066   2.136   2.197   2.459   2.402   2.394
    16.00    2.082   1.886   1.946   2.158   2.142   2.044   2.071   1.984   2.112   1.960   1.959   2.146   2.292   2.325   1.982   2.165   2.116   1.924   2.107   2.136   2.032   2.049   1.951   2.014   1.902   1.867   1.986   2.160   2.185   2.215   2.082   2.228   2.222   2.093   2.026   2.037   2.131   2.051   2.105   2.083   2.210   2.234   2.135   2.183   1.961   1.999   1.812   1.907   1.950   1.892   1.939   1.940   1.976   2.098   2.054   1.979   2.044   2.112   2.147   2.097   2.038   2.121   2.023   1.885   2.011   2.093   2.063   2.050   2.054   2.110   2.253   2.384   2.259
    11.00    2.122   2.036   2.087   2.072   2.148   2.039   1.934   1.913   1.973   1.948   2.114   2.249   2.275   2.217   2.328   2.276   2.179   2.030   1.980   2.061   2.089   2.060   2.088   2.021   1.900   1.966   2.131   2.129   2.021   2.016   2.110   2.092   2.120   2.251   2.216   2.066   2.178   2.149   2.138   2.085   2.150   2.196   2.264   2.120   2.025   1.842   1.967   1.855   1.929   1.926   1.957   1.914   1.974   2.023   1.947   1.912   1.946   2.001   2.022   2.021   1.890   1.965   1.954   1.941   2.048   2.103   2.063   2.075   2.119   2.212   2.113   2.173   2.137
     6.00    2.016   2.116   2.129   2.126   2.216   1.983   2.106   1.842   2.019   2.077   2.162   2.318   2.313   2.319   2.349   2.506   2.415   2.181   2.061   1.939   1.971   2.080   2.063   1.970   1.977   2.057   2.258   2.274   2.059   2.113   2.022   2.078   2.037   2.307   2.404   2.378   2.211   2.129   2.077   2.251   2.044   2.074   2.050   1.980   1.966   1.881   1.965   1.965   2.005   1.962   1.891   1.890   1.777   1.955   1.897   1.936   1.896   1.894   2.040   2.076   1.994   2.040   1.997   2.134   2.053   2.018   2.154   2.217   2.149   2.025   2.090   1.963   2.028
     1.00    2.175   2.191   2.187   2.230   2.221   2.087   2.010   2.046   2.110   2.201   2.241   2.181   2.328   2.295   2.267   2.366   2.289   2.196   2.106   1.851   2.047   1.867   1.960   2.013   2.044   2.035   2.191   2.044   1.938   2.059   1.931   2.033   2.169   2.254   2.128   2.323   2.391   2.240   2.205   2.087   2.040   2.137   2.054   1.941   1.977   1.880   2.030   2.081   1.954   1.956   1.905   1.948   1.838   1.871   1.892   1.896   1.966   2.117   2.224   2.188   2.097   1.927   1.999   2.074   2.025   2.063   2.106   2.011   1.871   1.939   1.874   1.841   1.925

   Height   Standard deviation at grid points for the v component:
   301.00    1.761   1.908   1.911   1.996   1.915   1.976   2.033   2.055   2.036   1.933   1.804   1.909   1.942   1.936   2.112   2.136   2.103   2.016   1.856   1.854   1.723   1.730   1.731   1.822   1.853   1.802   1.606   1.665   1.638   1.725   1.693   1.706   1.727   1.838   1.807   1.729   1.743   1.710   1.644   1.752   1.669   1.567   1.697   1.683   1.655   1.775   1.740   1.737   1.695   1.680   1.712   1.724   1.671   1.620   1.647   1.551   1.527   1.582   1.620   1.578   1.526   1.531   1.586   1.677   1.566   1.610   1.652   1.696   1.529   1.730   1.809   1.847   1.871
   296.00    1.804   1.954   1.837   1.813   1.960   1.969   2.036   1.998   1.970   1.903   1.966   2.086   2.025   1.958   1.992   2.091   1.953   1.954   1.923   1.774   1.748   1.720   1.755   1.688   1.797   1.702   1.702   1.723   1.677   1.667   1.711   1.679   1.785   1.817   1.756   1.642   1.669   1.720   1.665   1.717   1.708   1.590   1.597   1.597   1.572   1.682   1.639   1.628   1.579   1.602   1.675   1.731   1.707   1.651   1.577   1.554   1.516   1.639   1.711   1.691   1.578   1.557   1.649   1.677   1.550   1.538   1.544   1.565   1.609   1.758   1.825   1.828   1.879
   291.00    1.685   1.817   1.859   1.906   1.973   1.835   1.870   1.884   1.901   1.983   2.032   2.062   2.112   1.999   2.031   2.118   2.042   1.902   1.815   1.782   1.677   1.685   1.676   1.697   1.769   1.704   1.633   1.741   1.806   1.847   1.827   1.756   1.753   1.799   1.683   1.644   1.639   1.582   1.651   1.673   1.608   1.601   1.537   1.607   1.578   1.628   1.576   1.643   1.599   1.578   1.539   1.537   1.622   1.653   1.586   1.642   1.598   1.596   1.661   1.696   1.558   1.637   1.640   1.687   1.597   1.535   1.588   1.601   1.570   1.737   1.793   1.763   1.847
   286.00    1.700   1.674   1.828   1.809   1.863   1.853   1.992   1.927   1.999   2.099   2.084   1.988   2.023   2.035   2.143   2.047   1.900   1.717   1.664   1.620   1.651   1.633   1.766   1.713   1.825   1.693   1.737   1.639   1.750   1.851   1.684   1.722   1.685   1.689   1.723   1.750   1.710   1.677   1.599   1.550   1.613   1.583   1.521   1.609   1.630   1.538   1.556   1.540   1.557   1.559   1.583   1.550   1.558   1.570   1.487   1.596   1.654   1.667   1.569   1.702   1.575   1.648   1.748   1.587   1.581   1.618   1.554   1.679   1.668   1.773   1.808   1.707   1.656
   281.00    1.671   1.715   1.702   1.735   1.762   1.865   1.939   1.935   1.895   2.063   2.155   2.090   1.910   1.844   1.950   1.918   1.838   1.767   1.681   1.702   1.739   1.800   1.760   1.823   1.795   1.724   1.709   1.662   1.770   1.827   1.749   1.895   1.747   1.800   1.821   1.718   1.670   1.603   1.626   1.542   1.580   1.507   1.594   1.640   1.603   1.679   1.592   1.671   1.612   1.587   1.520   1.573   1.627   1.613   1.630   1.575   1.600   1.720   1.730   1.632   1.614   1.640   1.581   1.498   1.517   1.572   1.647   1.674   1.739   1.795   1.881   1.813   1.692
   276.00    1.701   1.697   1.645   1.638   1.666   1.656   1.812   1.819   1.946   1.955   2.003   2.009   1.932   1.958   1.783   1.744   1.754   1.680   1.734   1.729   1.650   1.761   1.783   1.688   1.670   1.690   1.645   1.708   1.734   1.760   1.795   1.815   1.761   1.797   1.741   1.703   1.766   1.745   1.614   1.635   1.607   1.537   1.609   1.599   1.586   1.586   1.689   1.626   1.722   1.671   1.683   1.660   1.681   1.705   1.640   1.543   1.594   1.728   1.723   1.649   1.620   1.700   1.572   1.491   1.526   1.565   1.616   1.639   1.676   1.723   1.803   1.880   1.767
   271.00    1.773   1.623   1.638   1.660   1.588   1.740   1.845   1.805   1.965   1.927   1.876   1.887   1.878   1.869   1.771   1.887   1.748   1.801   1.808   1.720   1.692   1.671   1.745   1.689   1.686   1.814   1.760   1.852   1.850   1.848   1.765   1.720   1.782   1.699   1.688   1.780   1.826   1.709   1.696   1.633   1.662   1.623   1.591   1.628   1.558   1.658   1.728   1.712   1.836   1.747   1.779   1.777   1.703   1.708   1.587   1.575   1.533   1.585   1.590   1.599   1.685   1.722   1.596   1.567   1.567   1.625   1.649   1.667   1.701   1.697   1.656   1.858   1.793
   266.00    1.705   1.666   1.569   1.686   1.749   1.866   1.872   1.949   1.914   1.904   1.817   1.833   1.873   1.839   1.794   1.753   1.821   1.758   1.684   1.568   1.696   1.692   1.698   1.661   1.826   1.804   1.840   1.955   1.772   1.751   1.746   1.690   1.751   1.714   1.643   1.738   1.856   1.754   1.694   1.704   1.658   1.650   1.579   1.625   1.639   1.709   1.650   1.653   1.724   1.741   1.785   1.827   1.614   1.625   1.584   1.629   1.496   1.550   1.657   1.538   1.715   1.663   1.668   1.641   1.765   1.725   1.710   1.659   1.758   1.791   1.814   1.806   1.760
   261.00    1.639   1.546   1.664   1.864   1.830   1.902   1.976   1.977   1.916   1.862   1.937   1.958   1.853   1.815   1.811   1.779   1.712   1.761   1.683   1.593   1.698   1.760   1.775   1.713   1.782   1.846   1.865   1.968   1.787   1.784   1.686   1.730   1.715   1.626   1.659   1.853   1.809   1.903   1.931   1.626   1.616   1.572   1.515   1.515   1.674   1.703   1.687   1.724   1.755   1.751   1.776   1.674   1.711   1.664   1.605   1.672   1.574   1.469   1.603   1.646   1.775   1.707   1.740   1.658   1.678   1.775   1.836   1.780   1.756   1.789   1.822   1.825   1.790
   256.00    1.548   1.595   1.689   1.898   2.041   1.947   1.801   1.854   1.940   1.990   2.023   1.992   1.889   1.785   1.797   1.780   1.776   1.826   1.783   1.732   1.745   1.839   1.881   1.841   1.838   1.925   1.970   2.062   1.892   1.840   1.835   1.717   1.622   1.592   1.668   1.848   1.899   1.900   1.895   1.729   1.592   1.475   1.575   1.608   1.685   1.718   1.646   1.681   1.773   1.769   1.747   1.690   1.700   1.686   1.654   1.657   1.610   1.532   1.557   1.649   1.637   1.630   1.703   1.676   1.729   1.738   1.875   1.860   1.772   1.605   1.694   1.750   1.704
   251.00    1.552   1.624   1.767   1.807   1.892   1.852   1.901   1.767   1.896   2.085   2.135   1.913   1.841   1.733   1.742   1.799   1.926   1.975   1.993   1.904   1.908   1.954   1.930   1.889   1.786   1.864   1.929   1.891   1.826   1.778   1.697   1.716   1.657   1.670   1.765   1.802   1.906   1.864   1.694   1.759   1.664   1.624   1.638   1.623   1.682   1.717   1.569   1.618   1.624   1.671   1.666   1.616   1.624   1.626   1.722   1.767   1.606   1.599   1.538   1.590   1.572   1.669   1.650   1.708   1.659   1.744   1.764   1.779   1.703   1.651   1.740   1.731   1.699
   246.00    1.716   1.669   1.725   1.841   1.822   1.761   1.827   1.899   2.099   2.146   2.181   1.999   2.037   1.866   1.702   1.802   1.807   1.949   1.955   1.956   2.051   2.030   1.893   1.912   1.835   1.926   2.006   1.968   1.862   1.949   1.790   1.784   1.754   1.907   1.871   1.715   1.723   1.783   1.774   1.795   1.655   1.737   1.675   1.682   1.654   1.688   1.651   1.687   1.640   1.621   1.688   1.636   1.644   1.641   1.632   1.751   1.651   1.641   1.571   1.577   1.528   1.658   1.658   1.611   1.682   1.694   1.688   1.748   1.789   1.654   1.614   1.688   1.580
   241.00    1.718   1.670   1.746   1.833   1.840   1.838   1.901   2.166   2.216   2.024   2.061   2.106   2.113   1.996   1.890   1.919   1.790   1.880   1.908   1.929   1.868   1.858   1.908   1.848   1.907   1.929   1.920   2.023   1.995   1.921   1.826   1.769   1.782   1.902   1.841   1.737   1.742   1.765   1.768   1.733   1.823   1.756   1.797   1.722   1.710   1.680   1.680   1.603   1.642   1.646   1.647   1.700   1.769   1.742   1.684   1.665   1.675   1.646   1.696   1.571   1.598   1.617   1.709   1.593   1.750   1.709   1.700   1.753   1.830   1.714   1.601   1.625   1.661
   236.00    1.725   1.686   1.850   1.893   1.865   1.967   2.060   2.098   2.080   2.167   2.172   2.080   2.111   1.947   1.882   1.857   1.799   1.910   1.883   1.794   1.847   1.873   1.871   1.851   1.861   1.995   1.955   2.034   1.944   1.965   1.908   1.817   1.763   1.775   1.799   1.737   1.689   1.752   1.712   1.692   1.734   1.860   1.819   1.662   1.747   1.694   1.670   1.744   1.788   1.709   1.735   1.726   1.778   1.924   1.803   1.745   1.590   1.617   1.684   1.707   1.753   1.640   1.616   1.686   1.774   1.706   1.763   1.697   1.718   1.690   1.665   1.596   1.578
   231.00    1.787   1.803   1.736   1.776   1.793   1.810   2.032   1.983   2.089   2.053   2.119   2.221   1.987   1.942   1.947   1.864   1.886   1.884   1.931   1.872   1.847   1.841   1.852   1.923   1.855   1.957   1.869   2.012   1.978   1.962   1.857   1.839   1.854   1.808   1.870   1.684   1.712   1.744   1.761   1.781   1.805   1.779   1.762   1.684   1.706   1.763   1.777   1.744   1.747   1.733   1.722   1.742   1.774   1.927   1.858   1.823   1.794   1.768   1.729   1.809   1.788   1.696   1.677   1.689   1.722   1.746   1.729   1.694   1.744   1.748   1.664   1.636   1.616
   226.00    1.744   1.811   1.689   1.704   1.693   1.812   1.958   2.178   2.127   2.072   2.186   2.071   2.046   1.880   2.006   1.871   1.997   1.974   1.917   1.853   1.879   2.023   2.005   1.906   1.918   1.851   1.978   2.001   1.885   1.917   1.924   1.964   2.028   1.984   1.906   1.842   1.838   1.807   1.758   1.743   1.711   1.685   1.720   1.646   1.770   1.819   1.861   1.729   1.772   1.765   1.774   1.792   1.806   1.893   1.895   1.813   1.811   1.772   1.747   1.676   1.670   1.715   1.759   1.777   1.717   1.792   1.647   1.733   1.824   1.684   1.748   1.699   1.647
   221.00    1.729   1.837   1.872   1.906   1.936   1.839   1.951   2.063   2.219   2.159   2.242   2.052   2.053   2.126   2.007   1.931   1.998   2.011   1.897   1.844   1.978   2.013   2.107   2.060   1.980   1.839   1.830   1.942   1.904   1.986   2.003   1.962   1.992   1.974   1.930   1.857   1.784   1.847   1.779   1.776   1.762   1.772   1.674   1.704   1.770   1.791   1.850   1.814   1.828   1.861   1.819   1.845   1.849   1.804   1.825   1.834   1.793   1.900   1.712   1.764   1.804   1.909   1.865   1.817   1.734   1.688   1.686   1.717   1.690   1.666   1.648   1.649   1.676
   216.00    1.769   1.851   1.900   1.964   1.856   1.920   1.841   1.973   2.148   2.222   2.158   2.112   2.127   2.209   2.068   1.971   2.030   1.956   2.061   2.022   2.057   2.075   2.111   2.069   2.000   1.847   1.850   1.888   1.883   2.007   1.987   1.993   2.038   1.919   1.947   1.872   1.855   1.770   1.729   1.759   1.823   1.790   1.833   1.784   1.853   1.780   1.722   1.798   1.785   1.676   1.830   1.781   1.797   1.829   1.894   1.750   1.787   1.801   1.888   1.805   1.917   1.855   1.788   1.862   1.766   1.702   1.734   1.802   1.658   1.709   1.698   1.636   1.561
   211.00    1.728   1.979   2.005   1.859   1.922   1.999   1.944   2.051   2.075   2.062   2.062   2.133   2.213   2.104   2.054   2.016   2.061   1.972   1.999   1.997   2.083   2.071   2.141   2.079   2.063   1.963   1.847   1.814   1.830   1.972   2.062   2.113   2.037   1.911   1.899   1.966   1.825   1.802   1.692   1.788   1.812   1.818   1.776   1.789   1.790   1.760   1.710   1.729   1.745   1.768   1.750   1.709   1.762   1.701   1.892   1.823   1.737   1.856   1.785   1.835   1.779   1.719   1.842   1.932   1.880   1.939   1.812   1.820   1.708   1.772   1.736   1.767   1.769
   206.00    1.715   1.833   1.936   1.918   1.901   1.936   1.927   2.022   2.076   2.009   2.018   2.199   2.286   2.197   2.042   1.991   2.203   2.075   1.951   2.006   2.028   2.025   2.012   2.011   1.986   1.970   1.871   1.937   1.958   1.940   1.938   2.012   2.019   2.108   2.018   1.932   1.920   1.804   1.753   1.741   1.740   1.825   1.851   1.736   1.853   1.759   1.733   1.708   1.647   1.683   1.738   1.778   1.823   1.772   1.848   1.833   1.799   1.798   1.908   1.788   1.684   1.791   1.878   1.989   2.028   1.954   1.884   1.775   1.843   1.839   1.910   1.832   1.744
   201.00    1.702   1.857   1.937   1.939   1.925   1.851   1.950   1.931   1.969   2.032   2.009   2.242   2.353   2.275   2.176   2.221   2.136   1.954   1.902   2.028   1.954   2.040   2.086   2.083   2.057   1.949   1.941   1.839   1.952   1.945   1.888   1.956   2.008   1.993   2.042   1.862   1.912   1.843   1.834   1.848   1.758   1.829   1.800   1.703   1.724   1.817   1.770   1.684   1.694   1.706   1.717   1.642   1.695   1.854   1.899   1.923   1.888   1.857   1.926   1.788   1.739   1.728   1.930   1.990   1.965   1.945   1.892   1.842   1.773   1.860   1.870   1.867   1.694
   196.00    1.793   1.765   1.863   1.935   1.982   1.952   1.935   1.980   2.005   2.077   2.188   2.237   2.241   2.220   2.308   2.274   2.012   2.020   1.986   2.141   2.072   2.067   2.126   2.203   2.066   2.065   1.905   1.868   1.977   1.956   2.006   1.975   1.963   1.932   1.800   1.915   1.937   1.852   1.810   1.756   1.786   1.840   1.814   1.702   1.674   1.734   1.802   1.739   1.722   1.759   1.706   1.628   1.666   1.699   1.809   1.918   1.963   1.957   1.925   1.869   1.765   1.804   1.854   1.941   1.877   1.885   1.854   1.823   1.894   1.900   1.805   1.861   1.700
   191.00    1.710   1.725   1.827   1.867   2.022   2.087   1.828   1.805   1.955   1.996   2.123   2.157   2.134   2.257   2.276   2.300   2.106   2.094   2.078   2.118   2.209   2.066   2.243   2.150   2.069   1.975   1.958   1.972   1.863   1.859   1.976   1.953   2.011   1.869   1.879   1.916   1.971   1.932   1.874   1.743   1.797   1.753   1.738   1.659   1.657   1.706   1.765   1.799   1.703   1.677   1.624   1.610   1.647   1.739   1.869   1.951   1.951   1.970   1.913   1.900   1.917   1.970   1.983   1.945   2.015   2.020   2.055   1.926   1.798   1.797   1.802   1.822   1.830
   186.00    1.756   1.808   1.724   1.799   1.870   1.887   1.873   1.936   1.997   2.078   2.067   2.110   2.111   2.157   2.250   2.133   1.976   1.998   2.024   2.139   2.105   2.085   2.126   2.143   2.022   2.020   1.989   1.935   1.862   1.900   1.933   1.970   1.796   1.910   1.984   1.914   1.917   1.935   1.931   1.807   1.712   1.753   1.766   1.712   1.686   1.616   1.690   1.695   1.697   1.700   1.655   1.675   1.754   1.862   1.842   1.832   1.820   1.984   2.066   2.031   1.931   1.978   1.937   1.967   1.992   2.057   1.866   1.917   1.819   1.800   1.756   1.730   1.793
   181.00    1.820   1.775   1.726   1.736   1.767   1.906   1.938   1.954   2.016   2.126   2.169   2.067   2.052   2.085   2.075   2.062   2.039   1.941   2.026   2.124   2.129   2.062   1.999   2.073   1.997   2.057   2.060   1.986   1.841   1.861   1.830   1.834   1.758   1.830   1.814   1.859   1.899   1.892   1.898   1.867   1.821   1.745   1.729   1.705   1.690   1.691   1.725   1.687   1.737   1.665   1.749   1.759   1.734   1.914   1.896   1.844   1.822   2.019   1.962   1.999   1.876   1.805   1.838   1.914   1.875   1.954   1.925   1.923   1.879   1.937   1.855   1.813   1.776
   176.00    1.889   1.682   1.737   1.789   1.732   1.833   1.902   1.992   1.932   1.973   1.984   2.015   1.902   1.921   1.970   2.029   1.908   1.895   1.970   2.039   2.163   2.130   2.041   2.080   1.999   2.042   2.008   1.958   1.923   1.842   1.832   1.810   1.874   1.857   1.906   1.828   1.813   1.752   1.831   1.850   1.862   1.845   1.895   1.719   1.635   1.646   1.612   1.658   1.733   1.744   1.688   1.683   1.673   1.727   1.809   1.940   1.826   1.841   1.883   1.881   1.829   1.819   1.916   2.014   1.917   1.898   1.872   1.806   1.901   1.890   1.835   1.804   1.851
   171.00    1.876   1.742   1.804   1.776   1.895   1.753   1.834   1.994   1.959   1.882   1.904   1.946   1.974   1.938   1.922   1.907   2.047   1.945   1.940   2.072   2.025   1.984   2.108   2.093   2.112   2.053   2.009   1.871   1.946   1.840   1.797   1.886   1.914   1.927   1.964   1.933   1.853   1.745   1.795   1.837   1.745   1.824   1.730   1.752   1.737   1.660   1.688   1.810   1.727   1.626   1.710   1.756   1.806   1.788   1.893   1.877   1.795   1.858   1.850   1.902   1.899   1.878   1.933   2.080   2.121   1.963   1.933   2.023   1.885   1.823   1.917   1.878   1.909
   166.00    1.856   1.880   1.902   1.943   1.829   1.877   1.870   1.981   1.998   1.922   1.783   1.855   1.886   2.032   1.927   1.828   1.851   1.931   1.922   1.971   1.933   1.877   2.090   2.015   2.041   2.069   2.126   1.988   2.028   1.905   1.910   1.989   2.000   1.869   1.962   1.868   1.817   1.740   1.714   1.824   1.788   1.622   1.642   1.635   1.786   1.759   1.707   1.891   1.870   1.838   1.815   1.830   1.736   1.765   1.758   1.879   1.883   1.886   1.972   1.864   1.885   1.887   1.937   2.042   2.049   1.994   2.092   2.040   2.007   1.875   1.925   2.037   2.039
   161.00    1.785   1.945   1.778   1.846   1.877   1.842   2.003   2.001   1.858   1.849   1.788   1.762   1.915   1.918   2.073   2.115   1.887   1.842   1.868   1.902   1.945   1.994   2.145   2.120   2.078   2.038   2.032   2.071   2.019   2.076   1.922   1.980   1.970   1.895   1.838   1.856   1.726   1.772   1.748   1.834   1.711   1.690   1.625   1.732   1.716   1.735   1.844   1.893   1.914   1.898   1.841   1.817   1.717   1.787   1.853   1.966   1.979   2.029   1.977   1.956   1.955   1.863   1.944   1.950   1.971   1.922   2.041   2.110   2.004   1.982   1.990   1.936   2.112
   156.00    1.781   1.930   2.035   1.992   1.871   1.878   1.880   1.889   1.875   1.851   1.849   1.806   1.939   1.913   2.042   2.034   1.789   1.865   1.932   1.901   2.048   2.058   2.244   2.200   2.148   2.041   2.001   1.953   1.967   1.958   1.962   1.958   1.860   2.016   1.856   1.906   1.892   1.827   1.751   1.718   1.758   1.716   1.651   1.740   1.793   1.742   1.779   1.861   1.832   1.906   1.924   1.778   1.793   1.795   1.739   1.790   1.865   1.994   1.977   1.945   1.962   1.907   1.854   1.908   1.816   1.824   1.983   1.897   1.989   2.014   1.955   1.921   2.034
   151.00    1.924   2.068   2.053   2.037   1.831   1.883   1.816   1.820   1.950   1.846   1.787   1.803   1.840   1.922   1.948   1.854   1.934   1.964   2.014   1.997   2.080   2.250   2.287   2.240   2.034   1.974   1.974   1.909   1.912   1.945   2.061   2.018   2.054   2.002   1.940   1.886   1.865   1.873   1.816   1.750   1.738   1.688   1.736   1.756   1.767   1.848   1.791   1.876   1.844   1.837   1.719   1.708   1.715   1.786   1.823   1.782   1.830   1.861   1.835   1.925   1.931   1.881   1.818   1.785   1.740   1.840   1.989   1.985   1.957   1.875   1.842   1.955   2.051
   146.00    1.990   2.016   2.023   2.052   1.877   1.951   1.860   1.897   1.832   1.975   1.756   1.812   1.920   1.828   1.933   1.846   2.028   2.009   2.099   2.042   2.090   2.311   2.382   2.273   2.175   2.041   2.094   2.177   2.045   2.077   2.162   2.152   2.137   2.020   1.974   1.880   1.869   1.846   1.797   1.870   1.794   1.794   1.700   1.808   1.757   1.633   1.737   1.864   1.893   1.949   1.857   1.762   1.715   1.898   1.742   1.803   1.759   1.890   1.967   1.980   1.885   1.782   1.816   1.865   1.831   1.819   1.816   1.804   1.847   1.868   1.797   1.988   2.041
   141.00    2.059   2.067   2.067   1.937   1.901   1.900   2.004   2.035   2.038   2.053   1.875   1.940   1.933   2.060   2.029   2.014   2.107   2.116   2.023   2.057   2.072   2.197   2.277   2.240   2.113   2.138   2.266   2.220   2.205   2.206   2.020   2.046   2.094   2.044   2.031   1.771   1.776   1.773   1.840   1.867   1.906   1.825   1.759   1.852   1.789   1.769   1.807   1.810   1.985   2.077   2.026   1.888   1.829   1.922   1.717   1.761   1.770   1.879   2.041   2.004   1.997   2.018   1.953   1.874   1.794   1.778   1.723   1.829   1.867   1.848   1.900   2.025   2.058
   136.00    1.975   1.999   1.954   1.852   1.889   1.912   1.902   1.937   1.962   1.969   1.928   1.859   1.813   2.034   2.099   2.181   2.144   2.229   2.153   2.152   2.088   2.059   2.199   2.340   2.207   2.274   2.336   2.336   2.335   2.175   2.065   2.118   2.104   2.044   1.985   1.979   1.832   1.760   1.873   1.951   1.918   1.807   1.867   1.968   1.864   1.847   1.931   1.941   2.015   2.052   2.005   2.065   1.854   1.856   1.769   1.741   1.866   1.810   1.991   2.104   2.125   2.127   2.026   1.966   2.012   1.760   1.738   1.790   1.866   1.887   1.947   2.075   2.126
   131.00    1.951   1.921   2.020   1.903   1.915   1.819   1.784   1.800   1.841   1.949   1.918   2.069   2.094   2.249   2.185   2.205   2.211   2.194   2.091   2.193   2.118   2.123   2.155   2.280   2.283   2.301   2.238   2.231   2.168   2.237   2.182   2.142   2.067   2.051   2.053   2.010   1.893   1.807   1.845   1.896   1.834   1.949   1.930   1.945   1.914   1.977   2.200   2.117   2.040   2.029   1.955   1.996   1.831   1.817   1.788   1.820   1.898   1.930   1.958   1.999   2.219   2.093   1.994   1.936   1.850   1.793   1.850   1.898   1.894   1.934   1.949   2.020   2.040
   126.00    1.880   1.801   1.816   1.788   1.860   1.853   1.683   1.696   1.808   1.959   1.991   2.226   2.280   2.244   2.143   2.205   2.236   2.276   2.181   2.306   2.249   2.112   2.146   2.216   2.246   2.390   2.329   2.156   2.193   2.241   2.112   2.231   2.058   2.031   2.021   1.981   1.927   1.962   1.841   1.874   1.845   1.928   1.905   1.901   2.053   2.117   2.253   2.227   2.116   2.009   1.993   1.939   1.827   1.695   1.698   1.769   1.920   2.079   2.029   2.133   2.189   2.218   2.029   1.938   2.045   1.930   1.885   2.025   2.022   2.027   2.072   1.935   1.890
   121.00    1.811   1.735   1.716   1.731   1.833   1.747   1.715   1.582   1.756   1.976   1.971   2.151   2.312   2.280   2.133   2.239   2.138   2.244   2.245   2.332   2.235   2.150   2.187   2.348   2.325   2.324   2.340   2.216   2.163   2.186   2.135   2.098   2.140   2.036   1.936   1.909   1.797   1.764   1.756   1.822   1.876   1.877   1.782   1.968   2.027   2.016   2.077   2.186   2.085   2.131   1.911   2.073   1.924   1.717   1.744   1.876   2.045   2.107   2.121   2.152   2.210   2.154   2.143   1.984   2.022   1.933   2.006   1.970   2.010   1.952   1.993   1.924   2.016
   116.00    1.716   1.691   1.702   1.685   1.631   1.637   1.677   1.649   1.639   1.913   2.084   2.123   2.152   2.160   2.105   2.197   2.289   2.155   2.216   2.161   2.122   2.119   2.210   2.323   2.290   2.308   2.358   2.234   2.176   2.223   2.192   2.167   2.131   1.995   1.962   1.875   1.757   1.741   1.717   1.812   1.798   1.745   1.894   1.972   1.982   2.058   1.986   2.106   2.054   1.963   1.971   2.051   1.944   1.842   1.852   2.014   2.223   2.180   2.185   2.045   2.138   1.961   2.096   2.053   2.085   1.912   1.897   1.965   1.896   1.863   1.903   1.939   1.903
   111.00    1.790   1.725   1.636   1.702   1.620   1.653   1.721   1.590   1.684   1.849   2.029   2.033   2.012   1.920   2.008   2.111   2.238   2.154   2.057   2.090   2.057   2.065   2.108   2.204   2.199   2.279   2.206   2.179   2.279   2.199   2.138   2.204   2.187   1.994   1.957   1.906   1.824   1.797   1.774   1.741   1.749   1.811   1.812   1.895   1.918   1.933   1.975   2.008   2.042   2.003   2.017   1.941   1.974   1.908   1.975   2.161   2.131   2.215   2.191   2.057   2.038   1.978   2.098   2.101   2.106   2.014   1.954   2.009   1.921   1.943   1.874   1.924   1.872
   106.00    1.687   1.652   1.658   1.616   1.660   1.705   1.677   1.637   1.746   1.917   1.960   1.946   1.940   1.924   1.956   2.078   2.138   2.141   2.047   1.879   1.853   1.891   1.965   2.081   2.097   2.203   2.210   2.153   2.161   2.000   2.075   2.245   2.234   2.027   1.946   1.941   1.944   1.797   1.781   1.788   1.899   1.893   1.742   1.768   1.893   1.917   1.958   1.913   2.027   2.065   1.957   1.967   1.897   1.946   2.005   2.088   2.054   2.080   2.139   1.998   2.074   2.092   1.968   2.000   2.034   2.059   1.968   1.971   1.900   1.976   1.991   2.049   2.060
   101.00    1.653   1.641   1.724   1.587   1.656   1.734   1.645   1.747   1.773   1.796   1.817   1.911   1.951   1.939   1.964   1.931   1.903   2.047   2.075   1.866   1.866   1.851   2.083   2.118   2.058   2.130   2.163   2.006   2.108   2.029   2.150   2.089   2.107   2.015   1.933   1.863   1.888   1.845   1.830   1.837   1.836   1.813   1.814   1.838   1.860   1.915   1.892   1.957   1.957   2.056   1.946   2.069   2.017   1.995   2.034   1.976   2.023   1.974   2.086   2.014   1.899   2.013   2.085   2.115   2.146   2.060   1.981   2.124   1.906   1.933   1.942   1.911   2.033
    96.00    1.656   1.685   1.657   1.620   1.657   1.675   1.681   1.763   1.671   1.711   1.700   1.718   1.849   1.699   1.897   1.906   1.922   2.006   2.038   1.906   1.927   1.990   2.163   2.197   2.119   2.300   2.209   2.049   2.012   1.956   1.854   1.988   2.049   1.918   1.895   1.866   1.745   1.739   1.696   1.794   1.852   1.839   1.850   1.804   1.758   1.735   1.738   1.839   1.898   1.974   1.869   1.861   1.951   2.026   2.157   2.091   2.104   2.150   2.114   1.922   1.872   1.950   1.995   1.950   2.101   2.060   2.004   2.112   2.008   2.050   1.829   1.841   1.848
    91.00    1.695   1.721   1.753   1.707   1.686   1.667   1.621   1.648   1.555   1.650   1.767   1.741   1.788   1.773   1.758   1.804   1.871   1.869   1.928   2.075   2.037   2.070   2.211   2.257   2.414   2.200   2.164   2.200   1.889   1.823   1.839   1.984   2.058   1.894   1.928   1.854   1.744   1.738   1.733   1.783   1.741   1.752   1.751   1.738   1.792   1.688   1.669   1.900   1.864   1.899   1.890   1.958   2.029   2.040   2.158   2.128   2.030   2.078   2.080   2.026   1.876   1.961   2.057   1.937   2.134   2.141   2.111   2.063   2.078   2.079   1.961   1.978   1.932
    86.00    1.813   1.709   1.709   1.656   1.634   1.576   1.607   1.616   1.704   1.767   1.782   1.711   1.780   1.834   1.860   1.752   1.822   1.789   1.881   2.072   2.024   2.118   2.119   2.205   2.231   2.220   2.246   2.048   2.001   1.905   1.817   1.872   1.982   1.960   1.889   1.835   1.822   1.826   1.815   1.724   1.826   1.853   1.722   1.569   1.563   1.626   1.604   1.807   1.832   1.773   1.771   1.900   1.985   2.010   2.108   2.023   2.084   2.138   1.946   1.944   1.807   1.870   1.943   2.068   2.161   2.216   1.989   2.062   2.094   2.230   2.016   1.954   2.002
    81.00    1.909   1.724   1.667   1.693   1.621   1.655   1.608   1.594   1.800   1.783   1.721   1.811   1.800   1.851   1.638   1.744   1.828   1.954   1.894   2.016   2.179   2.205   2.133   2.165   2.102   2.134   2.142   2.014   1.952   1.912   1.729   1.858   1.866   1.842   1.902   1.863   1.773   1.768   1.729   1.791   1.822   1.756   1.718   1.550   1.558   1.636   1.759   1.796   1.890   1.879   1.828   1.875   1.948   1.950   2.038   2.021   1.996   1.923   1.932   1.940   1.965   1.955   1.950   2.087   2.142   2.160   2.216   2.084   2.075   2.152   2.062   2.032   1.899
    76.00    1.828   1.775   1.784   1.630   1.678   1.617   1.652   1.695   1.795   1.829   1.796   1.820   1.829   1.789   1.675   1.750   1.889   2.069   2.013   2.122   2.268   2.240   2.201   2.182   1.970   2.066   2.066   1.922   1.810   1.871   1.787   1.778   1.799   1.830   1.759   1.799   1.736   1.713   1.670   1.772   1.800   1.656   1.671   1.633   1.655   1.604   1.742   1.870   1.877   1.809   1.832   1.759   1.939   1.924   1.983   1.934   1.870   1.859   1.978   2.006   2.020   2.004   2.077   2.123   2.055   2.112   2.110   2.026   2.041   2.109   2.092   1.934   1.817
    71.00    1.743   1.740   1.683   1.677   1.714   1.698   1.613   1.744   1.830   1.818   1.956   1.814   1.751   1.750   1.762   1.781   1.836   1.960   1.953   2.023   2.155   2.324   2.288   2.251   2.146   2.011   2.031   1.915   1.756   1.742   1.827   1.751   1.777   1.816   1.789   1.736   1.711   1.673   1.688   1.754   1.683   1.753   1.649   1.602   1.620   1.701   1.727   1.730   1.645   1.715   1.752   1.812   1.868   1.931   1.923   1.818   1.884   1.985   2.172   2.180   2.079   2.126   2.002   1.995   2.028   2.038   2.036   1.967   1.937   1.969   2.041   1.866   1.693
    66.00    1.862   1.687   1.777   1.668   1.624   1.656   1.628   1.693   1.698   1.757   1.881   1.806   1.817   1.705   1.661   1.707   1.812   1.813   1.852   2.026   2.124   2.278   2.329   2.203   2.128   2.021   1.994   1.895   1.833   1.747   1.798   1.722   1.731   1.765   1.736   1.655   1.641   1.672   1.688   1.785   1.750   1.738   1.660   1.640   1.614   1.578   1.695   1.648   1.673   1.658   1.791   1.832   1.800   1.814   1.823   1.763   1.899   1.961   2.072   2.157   2.223   2.105   2.043   1.946   2.000   1.944   2.022   1.996   2.044   2.028   2.096   1.844   1.756
    61.00    1.744   1.646   1.774   1.687   1.658   1.652   1.687   1.579   1.631   1.811   1.843   1.749   1.640   1.666   1.597   1.585   1.662   1.787   1.847   1.982   2.116   2.124   2.268   2.129   2.090   1.981   1.995   1.750   1.757   1.748   1.746   1.714   1.790   1.715   1.740   1.758   1.722   1.731   1.746   1.914   1.716   1.724   1.691   1.638   1.697   1.645   1.637   1.630   1.660   1.678   1.702   1.688   1.685   1.736   1.755   1.782   1.924   1.957   2.006   2.042   2.081   2.005   1.964   1.953   1.957   1.915   1.887   1.917   1.943   2.069   2.047   1.891   1.746
    56.00    1.848   1.738   1.755   1.719   1.788   1.635   1.655   1.582   1.675   1.730   1.830   1.706   1.554   1.589   1.567   1.579   1.538   1.597   1.707   1.963   2.024   2.248   2.123   2.009   2.019   2.149   1.943   1.829   1.690   1.673   1.660   1.734   1.731   1.729   1.753   1.637   1.671   1.821   1.835   1.978   1.883   1.807   1.665   1.625   1.659   1.654   1.654   1.664   1.720   1.645   1.672   1.720   1.771   1.706   1.753   1.853   1.871   1.845   1.790   1.889   1.899   1.843   1.856   1.980   1.890   1.743   1.815   1.821   1.766   1.921   1.967   1.877   1.894
    51.00    1.787   1.722   1.752   1.592   1.632   1.710   1.873   1.909   1.764   1.811   1.857   1.728   1.667   1.621   1.545   1.638   1.660   1.696   1.727   1.872   2.090   2.094   2.144   2.165   2.030   2.074   1.897   1.760   1.812   1.615   1.656   1.741   1.661   1.731   1.609   1.619   1.732   1.746   1.906   1.931   1.985   1.791   1.740   1.624   1.643   1.631   1.673   1.659   1.672   1.736   1.749   1.663   1.674   1.847   1.858   1.876   1.811   1.742   1.748   1.741   1.894   1.658   1.780   1.830   1.764   1.790   1.619   1.776   1.726   1.762   1.834   1.961   1.874
[...]
   161.00    1.160   1.101   1.127   1.126   1.132   1.124   1.138   1.099   1.118   1.117   1.095   1.096   1.109   1.138   1.132   1.075   1.133   1.175   1.203   1.170   1.198   1.142   1.154   1.141   1.125   1.085   1.136   1.088   1.115   1.107   1.104   1.120   1.103   1.144   1.130   1.141   1.110   1.122   1.152   1.167   1.114   1.166   1.159   1.132   1.146   1.145   1.148   1.155   1.149   1.092   1.107   1.070   1.076   1.069   1.059   1.106   1.098   1.164   1.148   1.144   1.138   1.135   1.083   1.106   1.105   1.119   1.143   1.174   1.157   1.223   1.220   1.222   1.231
   156.00    1.131   1.154   1.080   1.095   1.121   1.125   1.099   1.132   1.086   1.099   1.134   1.108   1.103   1.154   1.137   1.091   1.149   1.136   1.143   1.157   1.171   1.187   1.133   1.106   1.138   1.173   1.111   1.105   1.127   1.134   1.107   1.149   1.112   1.165   1.160   1.195   1.138   1.099   1.091   1.135   1.156   1.183   1.154   1.173   1.160   1.143   1.123   1.139   1.087   1.131   1.104   1.066   1.054   1.039   1.065   1.103   1.117   1.133   1.135   1.114   1.137   1.122   1.108   1.114   1.101   1.116   1.146   1.145   1.172   1.193   1.187   1.204   1.248
   151.00    1.158   1.119   1.120   1.084   1.084   1.059   1.109   1.113   1.096   1.160   1.130   1.166   1.128   1.149   1.121   1.093   1.114   1.100   1.134   1.137   1.140   1.103   1.091   1.145   1.168   1.146   1.103   1.151   1.137   1.125   1.140   1.116   1.119   1.161   1.147   1.161   1.123   1.101   1.121   1.150   1.149   1.163   1.219   1.164   1.146   1.120   1.143   1.133   1.110   1.064   1.097   1.036   1.049   1.066   1.054   1.072   1.083   1.077   1.108   1.097   1.127   1.090   1.130   1.114   1.087   1.135   1.157   1.154   1.149   1.144   1.195   1.208   1.200
   146.00    1.116   1.115   1.105   1.082   1.102   1.074   1.137   1.135   1.127   1.093   1.171   1.170   1.140   1.108   1.106   1.061   1.098   1.104   1.111   1.100   1.115   1.083   1.093   1.115   1.170   1.155   1.123   1.143   1.140   1.178   1.129   1.099   1.083   1.128   1.146   1.117   1.147   1.119   1.131   1.121   1.130   1.124   1.151   1.131   1.117   1.167   1.170   1.118   1.100   1.105   1.067   1.051   1.035   1.041   1.052   1.069   1.085   1.076   1.116   1.101   1.092   1.121   1.137   1.115   1.114   1.132   1.123   1.176   1.128   1.184   1.225   1.223   1.204
   141.00    1.087   1.105   1.075   1.068   1.093   1.114   1.175   1.152   1.117   1.148   1.129   1.128   1.122   1.137   1.128   1.101   1.076   1.083   1.093   1.104   1.125   1.115   1.116   1.124   1.145   1.127   1.106   1.133   1.102   1.144   1.161   1.134   1.144   1.126   1.153   1.145   1.136   1.126   1.124   1.124   1.160   1.179   1.128   1.101   1.102   1.147   1.107   1.069   1.078   1.083   1.076   1.048   1.061   1.069   1.068   1.075   1.072   1.128   1.181   1.113   1.110   1.107   1.138   1.130   1.159   1.112   1.139   1.151   1.138   1.180   1.175   1.199   1.239
   136.00    1.084   1.082   1.076   1.065   1.053   1.102   1.145   1.118   1.148   1.147   1.176   1.147   1.143   1.121   1.140   1.139   1.083   1.090   1.105   1.100   1.094   1.086   1.099   1.134   1.110   1.093   1.107   1.112   1.083   1.132   1.163   1.154   1.142   1.158   1.187   1.186   1.133   1.125   1.139   1.119   1.154   1.135   1.118   1.135   1.102   1.113   1.103   1.066   1.090   1.054   1.025   1.077   1.100   1.082   1.047   1.081   1.093   1.128   1.137   1.117   1.108   1.097   1.140   1.134   1.117   1.084   1.112   1.170   1.122   1.150   1.151   1.216   1.210
   131.00    1.092   1.092   1.085   1.092   1.076   1.078   1.077   1.106   1.081   1.103   1.127   1.139   1.125   1.140   1.158   1.105   1.116   1.078   1.052   1.075   1.090   1.062   1.114   1.165   1.118   1.115   1.126   1.107   1.113   1.130   1.131   1.138   1.150   1.156   1.135   1.097   1.082   1.104   1.125   1.139   1.174   1.155   1.136   1.145   1.138   1.135   1.069   1.073   1.088   1.067   1.054   1.046   1.097   1.097   1.094   1.067   1.080   1.108   1.114   1.127   1.125   1.096   1.086   1.085   1.095   1.065   1.091   1.115   1.203   1.190   1.151   1.173   1.187
   126.00    1.100   1.090   1.139   1.126   1.110   1.087   1.061   1.094   1.058   1.085   1.142   1.139   1.093   1.136   1.143   1.115   1.108   1.125   1.148   1.109   1.084   1.104   1.121   1.177   1.144   1.098   1.154   1.149   1.148   1.152   1.123   1.144   1.154   1.135   1.137   1.099   1.083   1.110   1.180   1.147   1.157   1.179   1.164   1.156   1.122   1.102   1.079   1.062   1.062   1.078   1.089   1.068   1.080   1.111   1.072   1.084   1.073   1.116   1.111   1.126   1.131   1.119   1.105   1.111   1.063   1.078   1.068   1.096   1.179   1.174   1.191   1.198   1.165
   121.00    1.125   1.094   1.121   1.083   1.120   1.091   1.065   1.086   1.077   1.125   1.168   1.136   1.145   1.158   1.134   1.150   1.163   1.141   1.094   1.092   1.104   1.111   1.173   1.119   1.161   1.158   1.188   1.183   1.143   1.156   1.105   1.131   1.095   1.135   1.183   1.164   1.134   1.108   1.126   1.143   1.154   1.116   1.136   1.121   1.124   1.093   1.131   1.075   1.081   1.012   1.045   1.058   1.103   1.064   1.075   1.091   1.079   1.139   1.114   1.108   1.101   1.091   1.072   1.121   1.080   1.125   1.092   1.123   1.203   1.202   1.191   1.158   1.171
   116.00    1.151   1.129   1.068   1.062   1.105   1.079   1.111   1.098   1.114   1.101   1.121   1.126   1.176   1.143   1.209   1.183   1.185   1.162   1.119   1.104   1.095   1.144   1.201   1.142   1.152   1.117   1.140   1.154   1.135   1.151   1.123   1.121   1.157   1.141   1.189   1.127   1.146   1.148   1.122   1.121   1.081   1.124   1.128   1.098   1.113   1.089   1.107   1.117   1.044   1.005   1.051   1.056   1.062   1.079   1.112   1.072   1.105   1.120   1.115   1.098   1.078   1.077   1.091   1.110   1.107   1.159   1.130   1.129   1.167   1.165   1.134   1.149   1.114
   111.00    1.076   1.107   1.117   1.086   1.109   1.054   1.074   1.051   1.082   1.089   1.082   1.134   1.159   1.210   1.197   1.172   1.182   1.166   1.129   1.084   1.075   1.151   1.183   1.168   1.171   1.148   1.123   1.119   1.095   1.154   1.116   1.155   1.138   1.100   1.100   1.147   1.102   1.124   1.102   1.106   1.098   1.093   1.152   1.144   1.139   1.084   1.126   1.135   1.097   1.059   1.039   1.084   1.076   1.105   1.122   1.124   1.108   1.132   1.135   1.093   1.077   1.084   1.057   1.083   1.142   1.139   1.106   1.113   1.116   1.118   1.116   1.070   1.095
   106.00    1.119   1.122   1.075   1.075   1.092   1.104   1.113   1.120   1.075   1.118   1.102   1.153   1.171   1.206   1.178   1.201   1.172   1.146   1.119   1.147   1.127   1.095   1.159   1.199   1.146   1.094   1.088   1.100   1.123   1.114   1.109   1.139   1.115   1.112   1.127   1.116   1.048   1.066   1.057   1.081   1.081   1.122   1.113   1.126   1.112   1.113   1.114   1.143   1.113   1.100   1.070   1.065   1.128   1.113   1.137   1.125   1.129   1.111   1.119   1.123   1.127   1.143   1.148   1.139   1.171   1.114   1.089   1.142   1.106   1.087   1.098   1.084   1.103
   101.00    1.172   1.133   1.107   1.104   1.105   1.095   1.148   1.152   1.130   1.102   1.067   1.109   1.141   1.155   1.169   1.200   1.188   1.176   1.167   1.158   1.120   1.084   1.125   1.126   1.175   1.114   1.090   1.090   1.078   1.086   1.063   1.115   1.096   1.124   1.121   1.121   1.076   1.067   1.056   1.049   1.035   1.115   1.139   1.159   1.092   1.088   1.159   1.176   1.148   1.139   1.137   1.107   1.108   1.132   1.141   1.139   1.127   1.139   1.125   1.142   1.170   1.171   1.163   1.135   1.165   1.130   1.088   1.143   1.103   1.103   1.105   1.106   1.130
    96.00    1.163   1.187   1.146   1.084   1.107   1.110   1.115   1.129   1.108   1.100   1.087   1.116   1.127   1.129   1.140   1.160   1.195   1.218   1.215   1.130   1.098   1.064   1.091   1.132   1.132   1.081   1.122   1.118   1.118   1.077   1.094   1.130   1.139   1.121   1.078   1.111   1.103   1.058   1.071   1.052   1.066   1.070   1.108   1.090   1.110   1.113   1.130   1.121   1.083   1.119   1.151   1.132   1.192   1.158   1.175   1.155   1.174   1.169   1.130   1.192   1.168   1.159   1.203   1.179   1.163   1.146   1.113   1.131   1.097   1.115   1.115   1.123   1.140
    91.00    1.136   1.130   1.098   1.110   1.125   1.130   1.114   1.118   1.139   1.096   1.097   1.128   1.156   1.106   1.130   1.158   1.170   1.154   1.159   1.135   1.094   1.089   1.087   1.131   1.112   1.099   1.096   1.103   1.042   1.091   1.114   1.157   1.062   1.074   1.071   1.078   1.077   1.048   1.058   1.054   1.105   1.078   1.060   1.103   1.077   1.048   1.095   1.090   1.110   1.152   1.138   1.156   1.183   1.167   1.201   1.157   1.128   1.160   1.152   1.218   1.177   1.182   1.156   1.164   1.185   1.136   1.106   1.062   1.056   1.126   1.111   1.119   1.109
    86.00    1.086   1.092   1.111   1.098   1.162   1.171   1.164   1.152   1.179   1.165   1.171   1.119   1.088   1.117   1.125   1.153   1.160   1.139   1.129   1.093   1.107   1.080   1.109   1.107   1.077   1.100   1.117   1.105   1.098   1.087   1.151   1.141   1.087   1.064   1.067   1.081   1.071   1.045   1.082   1.080   1.078   1.091   1.080   1.088   1.110   1.081   1.089   1.050   1.120   1.116   1.143   1.184   1.203   1.197   1.150   1.102   1.118   1.154   1.161   1.151   1.144   1.136   1.106   1.140   1.117   1.118   1.100   1.089   1.091   1.103   1.117   1.110   1.131
    81.00    1.089   1.148   1.094   1.119   1.143   1.168   1.168   1.130   1.196   1.238   1.191   1.179   1.151   1.122   1.155   1.146   1.122   1.112   1.090   1.117   1.107   1.116   1.109   1.106   1.082   1.117   1.131   1.097   1.106   1.115   1.111   1.082   1.093   1.112   1.113   1.097   1.066   1.041   1.078   1.083   1.110   1.087   1.071   1.081   1.068   1.087   1.085   1.085   1.100   1.114   1.137   1.168   1.169   1.178   1.127   1.119   1.134   1.111   1.126   1.124   1.196   1.147   1.097   1.112   1.112   1.136   1.130   1.065   1.089   1.113   1.122   1.110   1.169
    76.00    1.082   1.102   1.106   1.122   1.172   1.161   1.138   1.189   1.226   1.205   1.154   1.153   1.123   1.113   1.123   1.122   1.106   1.079   1.075   1.072   1.099   1.115   1.129   1.105   1.061   1.119   1.097   1.084   1.073   1.098   1.075   1.080   1.068   1.070   1.126   1.080   1.102   1.041   1.065   1.094   1.095   1.046   1.030   1.065   1.062   1.089   1.130   1.135   1.115   1.126   1.187   1.200   1.153   1.128   1.134   1.155   1.125   1.123   1.133   1.161   1.144   1.121   1.092   1.135   1.128   1.100   1.124   1.078   1.109   1.116   1.132   1.107   1.145
    71.00    1.073   1.091   1.118   1.128   1.111   1.133   1.123   1.162   1.198   1.180   1.144   1.122   1.115   1.112   1.119   1.128   1.111   1.078   1.125   1.103   1.097   1.115   1.156   1.143   1.108   1.111   1.088   1.125   1.077   1.089   1.074   1.079   1.114   1.070   1.080   1.103   1.124   1.103   1.095   1.111   1.109   1.073   1.057   1.063   1.077   1.099   1.117   1.133   1.124   1.144   1.188   1.200   1.131   1.118   1.124   1.126   1.157   1.125   1.102   1.150   1.130   1.092   1.080   1.130   1.070   1.074   1.071   1.074   1.095   1.110   1.139   1.109   1.107
    66.00    1.057   1.080   1.091   1.125   1.079   1.114   1.127   1.127   1.116   1.142   1.170   1.124   1.116   1.120   1.115   1.107   1.092   1.109   1.111   1.066   1.083   1.099   1.164   1.182   1.092   1.121   1.128   1.144   1.161   1.125   1.122   1.089   1.095   1.113   1.112   1.122   1.094   1.086   1.131   1.114   1.128   1.096   1.099   1.072   1.088   1.105   1.097   1.134   1.164   1.180   1.152   1.123   1.104   1.116   1.141   1.130   1.093   1.132   1.089   1.143   1.080   1.072   1.052   1.092   1.110   1.073   1.081   1.091   1.093   1.143   1.167   1.134   1.141
    61.00    1.036   1.057   1.065   1.090   1.092   1.127   1.137   1.130   1.127   1.106   1.149   1.126   1.112   1.096   1.078   1.050   1.055   1.109   1.123   1.077   1.084   1.097   1.074   1.078   1.101   1.140   1.162   1.210   1.174   1.189   1.145   1.135   1.114   1.093   1.127   1.132   1.104   1.114   1.132   1.148   1.098   1.084   1.065   1.097   1.121   1.079   1.114   1.132   1.171   1.181   1.150   1.116   1.116   1.106   1.132   1.106   1.103   1.093   1.136   1.142   1.112   1.054   1.081   1.112   1.171   1.158   1.149   1.085   1.093   1.130   1.183   1.179   1.106
    56.00    1.091   1.069   1.078   1.092   1.112   1.143   1.108   1.124   1.141   1.160   1.169   1.132   1.114   1.088   1.105   1.061   1.078   1.131   1.107   1.107   1.107   1.128   1.064   1.106   1.136   1.148   1.163   1.142   1.204   1.171   1.167   1.134   1.150   1.117   1.141   1.137   1.138   1.143   1.145   1.146   1.129   1.089   1.097   1.130   1.130   1.108   1.137   1.125   1.115   1.133   1.114   1.121   1.099   1.093   1.085   1.091   1.103   1.072   1.134   1.137   1.082   1.063   1.109   1.154   1.171   1.163   1.120   1.118   1.101   1.118   1.155   1.102   1.095
    51.00    1.064   1.065   1.081   1.094   1.157   1.096   1.104   1.092   1.095   1.116   1.123   1.136   1.146   1.159   1.101   1.096   1.067   1.132   1.129   1.082   1.098   1.098   1.077   1.119   1.146   1.180   1.166   1.101   1.198   1.150   1.134   1.143   1.141   1.169   1.137   1.156   1.141   1.101   1.130   1.113   1.129   1.170   1.143   1.152   1.160   1.141   1.172   1.111   1.092   1.050   1.086   1.063   1.112   1.093   1.101   1.088   1.101   1.109   1.121   1.134   1.119   1.130   1.135   1.145   1.130   1.134   1.107   1.127   1.111   1.116   1.123   1.123   1.101
    46.00    1.070   1.077   1.098   1.092   1.122   1.106   1.079   1.077   1.099   1.106   1.115   1.144   1.181   1.136   1.162   1.155   1.095   1.154   1.185   1.098   1.131   1.100   1.092   1.122   1.168   1.218   1.185   1.164   1.196   1.206   1.160   1.151   1.158   1.174   1.211   1.174   1.156   1.114   1.148   1.127   1.181   1.118   1.141   1.153   1.150   1.187   1.142   1.095   1.094   1.074   1.047   1.094   1.111   1.141   1.145   1.095   1.077   1.118   1.129   1.139   1.122   1.132   1.153   1.152   1.162   1.095   1.087   1.121   1.152   1.121   1.143   1.132   1.159
    41.00    1.050   1.061   1.069   1.078   1.106   1.114   1.105   1.078   1.091   1.113   1.079   1.151   1.163   1.144   1.148   1.104   1.105   1.126   1.131   1.120   1.111   1.124   1.099   1.103   1.131   1.180   1.156   1.169   1.149   1.160   1.143   1.144   1.176   1.215   1.204   1.184   1.131   1.147   1.106   1.151   1.157   1.142   1.093   1.143   1.200   1.199   1.138   1.148   1.129   1.092   1.094   1.073   1.114   1.095   1.111   1.136   1.146   1.144   1.133   1.137   1.099   1.130   1.101   1.165   1.154   1.105   1.094   1.126   1.129   1.104   1.121   1.144   1.142
    36.00    1.099   1.109   1.081   1.089   1.091   1.070   1.104   1.115   1.118   1.097   1.098   1.137   1.133   1.129   1.146   1.117   1.115   1.103   1.141   1.136   1.069   1.092   1.114   1.134   1.125   1.125   1.112   1.156   1.139   1.115   1.092   1.123   1.146   1.138   1.182   1.153   1.164   1.155   1.123   1.172   1.198   1.144   1.103   1.149   1.221   1.177   1.197   1.186   1.124   1.132   1.130   1.078   1.123   1.077   1.068   1.109   1.134   1.101   1.088   1.118   1.138   1.131   1.117   1.191   1.122   1.135   1.141   1.195   1.156   1.123   1.112   1.110   1.131
    31.00    1.114   1.131   1.129   1.075   1.093   1.090   1.111   1.126   1.130   1.139   1.106   1.127   1.108   1.095   1.175   1.072   1.080   1.125   1.103   1.151   1.166   1.131   1.149   1.193   1.181   1.133   1.149   1.108   1.138   1.161   1.111   1.126   1.113   1.152   1.155   1.155   1.147   1.161   1.163   1.141   1.150   1.125   1.103   1.120   1.148   1.149   1.171   1.158   1.136   1.141   1.084   1.062   1.088   1.087   1.125   1.125   1.149   1.100   1.108   1.128   1.140   1.142   1.137   1.157   1.134   1.137   1.157   1.206   1.119   1.136   1.156   1.123   1.131
    26.00    1.186   1.171   1.151   1.106   1.092   1.068   1.126   1.147   1.099   1.109   1.100   1.113   1.116   1.085   1.136   1.100   1.103   1.090   1.143   1.145   1.177   1.171   1.195   1.187   1.178   1.151   1.146   1.154   1.144   1.137   1.106   1.115   1.112   1.178   1.165   1.142   1.163   1.117   1.126   1.180   1.158   1.106   1.112   1.128   1.129   1.132   1.131   1.144   1.135   1.142   1.159   1.161   1.116   1.084   1.074   1.115   1.129   1.106   1.077   1.090   1.104   1.113   1.119   1.167   1.140   1.106   1.165   1.198   1.173   1.143   1.136   1.113   1.107
    21.00    1.114   1.153   1.159   1.118   1.133   1.096   1.144   1.200   1.161   1.135   1.094   1.157   1.142   1.120   1.115   1.075   1.084   1.067   1.137   1.169   1.182   1.184   1.164   1.160   1.131   1.184   1.200   1.163   1.152   1.089   1.089   1.087   1.130   1.135   1.190   1.153   1.161   1.132   1.152   1.191   1.182   1.125   1.122   1.117   1.123   1.135   1.108   1.115   1.126   1.113   1.150   1.086   1.103   1.074   1.121   1.122   1.091   1.110   1.079   1.071   1.084   1.119   1.127   1.162   1.153   1.153   1.143   1.145   1.138   1.124   1.129   1.115   1.070
    16.00    1.153   1.171   1.164   1.133   1.124   1.127   1.162   1.189   1.234   1.170   1.167   1.161   1.123   1.135   1.080   1.093   1.085   1.130   1.139   1.118   1.179   1.198   1.235   1.173   1.152   1.138   1.196   1.095   1.123   1.085   1.127   1.095   1.098   1.126   1.133   1.169   1.123   1.145   1.233   1.219   1.187   1.139   1.116   1.105   1.067   1.068   1.065   1.106   1.099   1.128   1.110   1.097   1.073   1.078   1.078   1.090   1.076   1.060   1.047   1.067   1.077   1.104   1.142   1.161   1.135   1.151   1.154   1.156   1.133   1.146   1.115   1.072   1.088
    11.00    1.134   1.138   1.186   1.154   1.155   1.171   1.230   1.226   1.214   1.244   1.199   1.194   1.125   1.112   1.122   1.128   1.142   1.172   1.168   1.161   1.166   1.153   1.161   1.135   1.098   1.121   1.150   1.154   1.143   1.151   1.140   1.110   1.092   1.063   1.099   1.099   1.089   1.087   1.172   1.162   1.185   1.158   1.073   1.081   1.067   1.060   1.111   1.129   1.101   1.136   1.105   1.109   1.084   1.121   1.102   1.078   1.052   1.028   1.026   1.018   1.053   1.077   1.060   1.092   1.142   1.146   1.124   1.145   1.130   1.121   1.130   1.058   1.099
     6.00    1.157   1.164   1.165   1.175   1.169   1.236   1.234   1.211   1.276   1.175   1.178   1.175   1.165   1.091   1.136   1.152   1.206   1.218   1.200   1.204   1.125   1.144   1.156   1.128   1.166   1.157   1.131   1.141   1.149   1.187   1.148   1.117   1.099   1.127   1.124   1.086   1.074   1.102   1.163   1.158   1.178   1.134   1.085   1.119   1.080   1.067   1.075   1.092   1.125   1.101   1.094   1.139   1.124   1.126   1.068   1.060   1.052   1.038   1.069   1.034   1.039   1.084   1.090   1.114   1.144   1.144   1.134   1.121   1.094   1.165   1.127   1.098   1.098
     1.00    1.139   1.125   1.167   1.153   1.188   1.218   1.222   1.202   1.205   1.220   1.167   1.135   1.125   1.144   1.162   1.159   1.182   1.177   1.213   1.206   1.202   1.167   1.134   1.113   1.139   1.169   1.180   1.155   1.148   1.109   1.110   1.128   1.133   1.144   1.127   1.105   1.095   1.138   1.153   1.168   1.170   1.111   1.076   1.105   1.091   1.087   1.063   1.063   1.077   1.063   1.089   1.123   1.160   1.115   1.079   1.046   1.048   1.068   1.090   1.053   1.056   1.082   1.103   1.091   1.128   1.086   1.109   1.112   1.132   1.148   1.116   1.113   1.114

   Mean standard deviation across all grid points:
      u component:    2.098 m/s
      v component:    1.854 m/s
      w component:    1.129 m/s


U-component (X) statistics from the interpolated hub point:

   Mean =  11.6748 m/s
   TI   =  19.9602 %


Processing complete.  11001 CPU seconds used.
