
This summary file was generated by TurbSim (from OpenFAST-v3.3.0) on 09-Jan-2023 at 13:48:15.


Runtime Options:

         1  Random seed #1
         6  Random seed #2
         F  Output binary HH turbulence parameters?
         F  Output formatted turbulence parameters?
         F  Output AeroDyn HH files?
         T  Output AeroDyn FF files?
         F  Output BLADED FF files?
         F  Output tower data?
         F  Output HAWC FF files?
         F  Output formatted FF files?
         T  Output coherent turbulence time step file?
 0 -  NONE  IEC turbulence models scaled to exact specified standard deviation


Turbine/Model Specifications:

        61  Vertical grid-point matrix dimension
        73  Horizontal grid-point matrix dimension
     0.100  Time step [seconds]
   600.000  Analysis time [seconds]
   600.000  Usable output time [seconds]
   151.000  Hub height [m]
   300.000  Grid height [m]
   360.000  Grid width [m]
     0.000  Vertical flow angle [degrees]
     0.000  Horizontal flow angle [degrees]


Meteorological Boundary Conditions:

    TIMESR  User-input time series spectral model
       N/A  IEC standard
       N/A  IEC turbulence characteristic
       N/A  IEC turbulence type
       N/A  IEC Extreme Turbulence Model (ETM) "c" parameter [m/s]
       PL   Wind profile type
   119.000  Reference height [m]
    11.400  Reference wind speed [m/s]
       N/A  Jet height [m]
     0.100  Power law exponent
     0.030  Surface roughness length [m]


Non-IEC Meteorological Boundary Conditions:

    45.000  Site latitude [degrees]
     0.050  Gradient Richardson number
     0.529  Friction or shear velocity [m/s]
       N/A  Mixing layer depth [m]
       N/A  Mean hub u'w' Reynolds stress
       N/A  Mean hub u'v' Reynolds stress
       N/A  Mean hub v'w' Reynolds stress


Spatial Coherence Models:

       IEC  u-component coherence model
       IEC  v-component coherence model
       IEC  w-component coherence model
(   12.000, 0.659E-03)  u-component coherence parameters
(   12.000, 0.659E-03)  v-component coherence parameters
(   12.000, 0.659E-03)  w-component coherence parameters
       N/A  Coherence exponent


Coherent Turbulence Scaling Parameters:

.\EventData
            Name of the path containing the coherent turbulence data files
       dns  Type of coherent turbulence data files
     1.000  Disturbance scale (ratio of wave height to rotor diameter)
     0.500  Fractional location of tower centerline from right
     0.500  Fractional location of hub height from the bottom of the dataset
    30.000  Minimum start time for coherent structures [seconds]


Profiles from User-Defined Time-Series Input:

  Height   Wind Speed   Horizontal Angle   Vertical Angle
   (m)        (m/s)          (deg)              (deg)    
  ------   ----------   ----------------   --------------
  119.00      11.47           0.00               -0.00


You have requested that the following file(s) be generated:

   HighT7.bts (AeroDyn/TurbSim full-field wind file)


Turbulence Simulation Scaling Parameter Summary:

   Turbulence model used                            =  User-input time series
   Gradient Richardson number                       =    0.050
   Monin-Obukhov (M-O) z/L parameter                =    0.067
   Monin-Obukhov (M-O) length scale                 = 2265.000 m
   Mean wind speed at hub height                    =   11.675 m/s

   Wind profile type                                =  Power law
   Power law exponent                               =    0.100
   Mean shear across rotor disk                     =    0.018 (m/s)/m
   Assumed rotor diameter                           =  300.000 m
   Surface roughness length                         =    0.030 m

   Nyquist frequency of turbulent wind field        =    5.000 Hz

   Number of time steps in the FFT                  =     6000
   Number of time steps output                      =     6000
   Number of points simulated                       =     4454


Mean Flow Angles:

   Vertical   =   0.0 degrees
   Horizontal =   0.0 degrees

Mean Wind Speed Profile:

   Height    Wind Speed   Horizontal Angle  Vertical Angle  U-comp (X)   V-comp (Y)   W-comp (Z)
     (m)        (m/s)         (degrees)       (degrees)       (m/s)        (m/s)        (m/s)   
   ------    ----------   ----------------  --------------  ----------   ----------   ----------
    301.0       12.51            0.00            0.00         12.51         0.00         0.00
    296.0       12.49            0.00            0.00         12.49         0.00         0.00
    291.0       12.47            0.00            0.00         12.47         0.00         0.00
    286.0       12.44            0.00            0.00         12.44         0.00         0.00
    281.0       12.42            0.00            0.00         12.42         0.00         0.00
    276.0       12.40            0.00            0.00         12.40         0.00         0.00
    271.0       12.38            0.00            0.00         12.38         0.00         0.00
    266.0       12.35            0.00            0.00         12.35         0.00         0.00
    261.0       12.33            0.00            0.00         12.33         0.00         0.00
    256.0       12.31            0.00            0.00         12.31         0.00         0.00
    251.0       12.28            0.00            0.00         12.28         0.00         0.00
    246.0       12.26            0.00            0.00         12.26         0.00         0.00
    241.0       12.23            0.00            0.00         12.23         0.00         0.00
    236.0       12.21            0.00            0.00         12.21         0.00         0.00
    231.0       12.18            0.00            0.00         12.18         0.00         0.00
    226.0       12.16            0.00            0.00         12.16         0.00         0.00
    221.0       12.13            0.00            0.00         12.13         0.00         0.00
    216.0       12.10            0.00            0.00         12.10         0.00         0.00
    211.0       12.07            0.00            0.00         12.07         0.00         0.00
    206.0       12.04            0.00            0.00         12.04         0.00         0.00
    201.0       12.01            0.00            0.00         12.01         0.00         0.00
    196.0       11.98            0.00            0.00         11.98         0.00         0.00
    191.0       11.95            0.00            0.00         11.95         0.00         0.00
    186.0       11.92            0.00            0.00         11.92         0.00         0.00
    181.0       11.89            0.00            0.00         11.89         0.00         0.00
    176.0       11.85            0.00            0.00         11.85         0.00         0.00
    171.0       11.82            0.00            0.00         11.82         0.00         0.00
    166.0       11.79            0.00            0.00         11.79         0.00         0.00
    161.0       11.75            0.00            0.00         11.75         0.00         0.00
    156.0       11.71            0.00            0.00         11.71         0.00         0.00
    151.0       11.67            0.00            0.00         11.67         0.00         0.00
    146.0       11.64            0.00            0.00         11.64         0.00         0.00
    141.0       11.60            0.00            0.00         11.60         0.00         0.00
    136.0       11.55            0.00            0.00         11.55         0.00         0.00
    131.0       11.51            0.00            0.00         11.51         0.00         0.00
    126.0       11.47            0.00            0.00         11.47         0.00         0.00
    121.0       11.42            0.00            0.00         11.42         0.00         0.00
    116.0       11.37            0.00            0.00         11.37         0.00         0.00
    111.0       11.32            0.00            0.00         11.32         0.00         0.00
    106.0       11.27            0.00            0.00         11.27         0.00         0.00
    101.0       11.21            0.00            0.00         11.21         0.00         0.00
     96.0       11.16            0.00            0.00         11.16         0.00         0.00
     91.0       11.10            0.00            0.00         11.10         0.00         0.00
     86.0       11.04            0.00            0.00         11.04         0.00         0.00
     81.0       10.97            0.00            0.00         10.97         0.00         0.00
     76.0       10.90            0.00            0.00         10.90         0.00         0.00
     71.0       10.83            0.00            0.00         10.83         0.00         0.00
     66.0       10.75            0.00            0.00         10.75         0.00         0.00
     61.0       10.66            0.00            0.00         10.66         0.00         0.00
     56.0       10.57            0.00            0.00         10.57         0.00         0.00
     51.0       10.47            0.00            0.00         10.47         0.00         0.00
     46.0       10.37            0.00            0.00         10.37         0.00         0.00
     41.0       10.25            0.00            0.00         10.25         0.00         0.00
     36.0       10.12            0.00            0.00         10.12         0.00         0.00
     31.0        9.97            0.00            0.00          9.97         0.00         0.00
     26.0        9.79            0.00            0.00          9.79         0.00         0.00
     21.0        9.58            0.00            0.00          9.58         0.00         0.00
     16.0        9.33            0.00            0.00          9.33         0.00         0.00
     11.0        8.98            0.00            0.00          8.98         0.00         0.00
      6.0        8.46            0.00            0.00          8.46         0.00         0.00
      1.0        7.07            0.00            0.00          7.07         0.00         0.00


Harvested Random Seeds after Generation of the Random Numbers:

   2107445636 Harvested seed # 1
    577914760 Harvested seed # 2


Hub-Height Simulated Turbulence Statistical Summary:

   Type of Wind        Min (m/s)   Mean (m/s)    Max (m/s)  Sigma (m/s)       TI (%)
   ----------------    ---------   ----------    ---------  -----------       ------
   Longitudinal (u)         4.74        11.67        18.26        2.236       19.152
   Lateral (v)             -6.37        -0.00         6.03        1.874       16.055
   Vertical (w)            -4.47        -0.00         3.88        1.141        9.773
   U component              4.74        11.67        18.26        2.236       19.152
   V component             -6.37        -0.00         6.03        1.874       16.055
   W component             -4.47        -0.00         3.88        1.141        9.773
   Horizontal (U&V)         4.99        11.83        18.29        2.216       18.737
   Total                    5.03        11.88        18.39        2.207       18.571

                       Min Reynolds     Mean Reynolds    Max Reynolds    Correlation
   Product             Stress (m/s)^2   Stress (m/s)^2   Stress (m/s)^2  Coefficient
   ----------------    --------------   --------------   --------------  -----------
   u'w'                    -17.420             0.122            12.218         0.048
   u'v'                    -19.659            -0.002            29.822        -0.001
   v'w'                    -10.943             0.244            13.288         0.114


   Friction Velocity (Ustar)  =      0.349 m/s
   Maximum Instantaneous TKE  =     30.676 (m/s)^2
   Maximum Instantaneous CTKE =     15.348 (m/s)^2


Grid Point Variance Summary:

   Y-coord -180.00 -175.00 -170.00 -165.00 -160.00 -155.00 -150.00 -145.00 -140.00 -135.00 -130.00 -125.00 -120.00 -115.00 -110.00 -105.00 -100.00  -95.00  -90.00  -85.00  -80.00  -75.00  -70.00  -65.00  -60.00  -55.00  -50.00  -45.00  -40.00  -35.00  -30.00  -25.00  -20.00  -15.00  -10.00   -5.00    0.00    5.00   10.00   15.00   20.00   25.00   30.00   35.00   40.00   45.00   50.00   55.00   60.00   65.00   70.00   75.00   80.00   85.00   90.00   95.00  100.00  105.00  110.00  115.00  120.00  125.00  130.00  135.00  140.00  145.00  150.00  155.00  160.00  165.00  170.00  175.00  180.00

   Height   Standard deviation at grid points for the u component:
   301.00    2.273   2.262   2.264   2.311   2.256   2.132   2.122   2.226   2.231   2.255   2.349   2.358   2.291   2.313   2.224   2.397   2.338   2.186   2.251   2.134   1.952   2.043   2.045   2.029   2.026   1.931   2.007   2.089   1.977   2.018   1.996   2.013   2.168   2.320   2.138   2.183   2.148   2.171   2.148   2.198   2.151   2.158   2.240   2.195   2.132   2.098   2.078   2.103   2.146   1.971   1.819   1.873   1.887   1.935   1.945   1.888   1.970   1.936   1.999   2.003   1.914   1.886   1.858   1.834   1.940   2.065   2.159   2.096   2.016   2.000   2.052   2.135   2.181
   296.00    2.257   2.176   2.217   2.206   2.247   2.118   2.219   2.260   2.130   2.277   2.314   2.140   2.310   2.277   2.268   2.222   2.280   2.053   2.237   2.197   2.014   1.976   2.130   2.149   1.922   1.983   2.051   1.982   2.104   2.269   2.169   2.123   2.159   2.243   2.373   2.317   2.175   2.190   2.262   2.194   2.246   2.262   2.192   2.161   2.099   2.030   2.035   2.073   2.180   2.006   1.830   1.845   1.855   1.894   1.900   1.910   1.984   2.099   1.976   2.046   1.902   1.753   1.892   2.003   2.046   1.981   1.995   1.979   1.899   1.795   1.846   1.895   1.875
   291.00    2.287   2.175   1.999   2.041   2.119   2.068   2.023   2.181   2.039   2.228   2.228   2.216   2.260   2.311   2.219   2.170   2.213   2.104   2.112   2.189   2.126   2.182   2.159   2.042   1.917   2.020   2.079   2.085   2.127   2.173   2.095   2.250   2.207   2.207   2.225   2.160   1.962   1.991   2.026   2.171   2.254   2.272   2.256   2.239   2.357   2.348   2.064   2.120   2.186   2.092   1.893   1.823   1.908   1.951   1.868   1.914   2.072   2.260   2.172   2.099   2.146   1.899   2.066   2.144   2.090   1.960   1.900   1.892   1.769   1.841   1.688   1.770   1.818
   286.00    2.159   2.083   2.001   2.160   2.113   2.018   2.062   2.017   2.053   2.229   2.081   1.905   2.098   2.229   2.185   2.174   1.994   1.872   2.119   2.119   1.921   2.035   2.033   1.955   1.938   2.023   2.038   2.116   2.077   2.228   2.207   2.171   2.205   2.218   2.024   2.064   2.030   1.967   2.040   2.087   2.087   1.991   2.088   2.159   2.195   2.178   2.227   2.070   2.135   2.001   1.963   1.962   2.054   1.982   1.914   2.009   1.994   2.112   2.183   2.112   2.150   2.071   2.128   2.143   2.069   2.022   1.943   1.760   1.884   1.811   1.693   1.774   1.927
   281.00    2.255   2.137   2.112   2.267   2.181   1.998   2.125   2.205   2.084   2.029   2.046   1.901   1.997   2.169   2.122   2.017   1.939   1.925   2.000   1.992   1.897   1.921   1.883   1.958   1.904   1.881   2.126   2.059   2.258   2.345   2.349   2.358   2.341   2.211   2.135   2.031   2.103   2.150   2.039   2.046   1.936   1.994   2.184   2.147   2.147   2.252   2.233   2.248   2.094   2.014   2.010   1.945   2.080   1.967   2.175   2.044   2.066   2.196   2.242   2.125   2.134   2.053   2.157   2.156   2.208   2.222   1.903   1.816   1.891   1.832   1.787   1.806   1.913
   276.00    2.287   2.311   2.345   2.194   2.235   2.139   2.153   2.110   2.054   2.093   1.958   1.972   2.057   2.072   1.977   1.976   1.997   1.933   1.867   1.958   1.951   2.013   1.791   1.855   1.808   1.913   1.933   2.041   2.221   2.357   2.361   2.192   2.215   2.080   2.191   2.177   2.130   2.124   2.136   2.150   2.099   2.170   2.379   2.274   2.111   2.204   2.078   2.116   2.033   2.094   1.939   2.138   2.066   2.007   2.023   1.990   2.081   2.227   2.070   2.072   2.094   1.905   2.162   2.170   2.228   2.188   1.924   1.803   1.837   1.768   1.876   1.931   2.002
   271.00    2.414   2.354   2.397   2.269   2.292   2.240   2.088   2.083   1.990   2.085   1.794   1.849   1.908   2.038   1.932   1.944   1.950   1.994   1.951   2.077   2.138   2.043   2.089   1.977   1.925   1.994   1.941   1.986   2.055   2.177   2.128   2.181   2.210   2.219   2.126   2.325   2.274   2.125   2.109   2.105   2.086   2.281   2.404   2.077   2.113   2.032   2.157   2.122   2.117   2.049   1.980   2.097   2.123   2.017   2.011   2.137   2.178   2.123   2.074   2.209   2.107   1.958   2.000   2.259   2.203   2.181   2.010   1.849   1.904   1.850   2.008   1.936   1.851
   266.00    2.302   2.403   2.378   2.246   2.320   2.138   2.000   2.101   1.973   2.080   2.036   1.934   1.942   1.922   2.045   2.016   1.928   2.039   2.146   2.189   2.285   2.127   2.101   1.903   1.895   1.940   2.037   1.924   1.971   2.114   2.151   2.031   2.255   2.179   2.174   2.412   2.400   2.200   2.042   1.899   1.968   2.130   2.191   2.241   2.122   2.078   2.090   2.151   2.066   2.064   1.920   1.939   1.885   1.929   1.961   2.120   2.131   2.221   2.193   2.257   2.071   2.006   2.072   2.338   2.181   2.268   2.132   1.952   1.863   1.820   1.843   1.810   1.642
   261.00    2.322   2.201   2.141   2.204   2.217   2.072   2.023   1.907   1.971   1.919   1.929   1.835   1.794   1.784   1.972   1.981   1.930   2.045   2.147   2.017   2.169   2.097   2.082   2.070   1.979   1.987   2.057   2.047   1.970   1.856   1.929   2.068   2.186   2.118   2.180   2.288   2.304   2.047   1.912   2.161   2.023   2.045   2.230   2.150   2.142   2.099   2.275   2.119   2.175   2.118   1.996   1.888   1.813   1.852   1.907   2.081   2.168   2.301   2.411   2.376   2.094   2.137   2.223   2.275   2.398   2.158   2.187   1.925   1.848   1.754   1.897   1.701   1.763
   256.00    2.336   2.229   2.137   2.051   2.216   2.091   2.020   1.881   1.987   1.864   1.831   1.859   1.953   1.920   1.881   1.859   1.841   1.990   2.143   2.058   2.068   1.978   2.000   1.889   1.865   1.801   1.907   1.965   1.937   1.831   1.880   2.039   2.031   2.011   1.978   2.175   2.294   2.169   1.930   1.996   1.955   2.009   2.097   2.113   2.080   2.060   2.029   2.166   2.100   2.137   2.074   1.925   1.912   1.810   1.788   2.076   2.163   2.256   2.232   2.304   2.134   2.221   2.285   2.237   2.395   2.196   2.105   1.971   1.938   1.879   1.739   1.730   1.709
   251.00    2.358   2.308   2.149   2.197   2.146   2.059   2.009   1.865   1.825   1.844   1.801   1.877   1.971   1.897   1.839   1.765   1.901   1.931   2.103   1.973   1.916   1.982   2.024   1.794   1.821   1.935   1.957   1.964   1.855   1.850   1.891   2.005   1.926   1.984   1.990   2.011   2.052   2.045   1.922   1.913   1.903   2.080   2.243   2.012   1.916   1.977   1.976   2.116   2.170   2.311   2.204   2.151   2.143   1.984   1.843   2.027   2.100   2.090   2.129   2.182   2.257   2.257   2.288   2.305   2.333   2.281   2.247   2.089   1.949   1.841   1.834   1.710   1.745
   246.00    2.334   2.290   2.127   2.103   2.019   2.018   2.239   2.005   1.986   2.045   1.914   1.990   2.041   2.032   1.783   1.765   1.909   2.034   2.053   2.087   1.935   2.016   2.073   1.942   1.872   1.835   1.958   2.001   1.981   1.931   1.937   1.939   1.909   2.061   1.806   1.821   2.046   2.038   1.995   2.067   1.958   1.985   1.990   1.847   1.886   2.034   2.056   2.130   2.199   2.202   2.168   2.272   2.262   1.928   1.817   1.842   1.931   2.098   2.132   2.158   2.281   2.338   2.378   2.381   2.428   2.262   2.219   2.164   2.020   1.800   1.691   1.573   1.756
   241.00    2.126   2.074   1.982   2.089   2.243   2.178   2.123   2.005   2.140   2.055   1.979   1.918   1.974   1.838   1.872   1.778   1.918   2.014   2.127   2.056   1.973   2.058   1.983   1.925   1.801   1.801   1.806   1.882   2.029   2.031   2.037   2.021   1.895   1.990   1.745   1.966   2.020   2.066   1.945   1.855   1.935   1.998   2.003   1.873   1.897   1.871   1.949   2.118   2.216   2.269   2.224   2.190   2.321   2.207   2.090   1.887   1.987   2.105   2.077   2.183   2.279   2.198   2.329   2.313   2.213   2.133   2.126   2.156   2.144   1.882   1.830   1.823   1.860
   236.00    2.180   2.109   1.869   2.115   2.225   2.152   2.087   2.136   2.101   1.992   2.082   2.026   1.972   1.951   1.899   1.917   1.932   1.978   1.978   1.857   1.917   1.943   1.979   1.954   1.901   1.886   1.894   1.876   2.024   1.966   2.091   1.908   1.880   2.005   1.815   1.980   2.076   2.057   1.934   1.875   1.886   1.998   2.000   1.914   1.854   1.811   2.028   2.062   2.232   2.324   2.276   2.254   2.251   2.279   2.262   2.049   2.064   2.096   2.053   2.069   2.119   2.258   2.139   2.150   2.152   2.133   2.045   2.027   2.076   2.027   1.862   1.920   1.894
   231.00    2.175   2.139   2.043   1.996   2.209   2.151   2.130   2.210   2.052   2.139   2.156   2.153   2.061   2.001   2.051   1.952   1.842   1.861   1.957   1.884   1.933   1.868   1.901   1.826   1.935   1.972   1.922   1.947   1.981   2.114   2.164   1.924   1.816   1.977   1.944   2.096   2.084   1.959   1.893   1.918   2.142   2.178   2.083   1.945   1.914   1.966   1.893   2.045   2.106   2.114   2.199   2.119   2.233   2.404   2.397   2.199   2.222   2.170   2.073   1.999   2.114   1.962   2.059   2.083   2.071   2.229   1.998   1.944   1.933   1.835   2.041   1.825   1.909
   226.00    2.077   1.967   1.940   2.016   2.085   2.175   2.225   2.238   2.184   2.228   2.151   2.173   2.046   2.029   1.953   1.839   1.873   1.845   1.844   1.848   1.845   1.938   1.897   1.907   1.952   1.858   1.939   2.007   1.919   1.988   2.139   2.061   2.011   1.983   2.087   2.156   2.152   2.271   2.121   2.100   2.164   2.078   2.076   1.890   1.922   1.978   1.992   1.944   1.952   1.977   2.208   2.249   2.240   2.351   2.375   2.428   2.257   2.081   2.018   2.007   1.941   2.034   2.008   2.042   2.132   2.108   2.026   1.907   1.953   1.894   1.860   1.784   1.878
   221.00    2.017   1.949   2.058   2.072   2.049   2.050   2.238   2.245   2.297   2.236   2.143   2.074   2.045   1.987   1.952   1.989   1.901   1.875   1.807   1.918   1.943   1.881   1.805   1.824   1.881   2.070   2.166   2.118   2.160   2.138   1.982   2.039   2.209   2.152   2.164   2.116   2.193   2.242   2.135   2.124   2.034   2.047   2.005   1.865   1.970   1.920   1.989   1.938   1.994   2.149   2.213   2.109   2.176   2.184   2.254   2.228   2.295   2.180   2.069   1.986   1.985   1.992   2.149   2.159   2.266   2.188   2.015   1.929   2.069   2.096   1.824   1.821   1.915
   216.00    1.885   1.978   2.164   2.216   2.203   1.977   2.066   2.273   2.256   2.220   2.115   2.093   2.117   2.039   1.892   1.938   2.017   1.883   1.857   1.831   1.890   1.866   1.782   1.804   1.952   1.971   2.077   2.086   2.091   2.009   2.119   2.155   2.365   2.177   2.142   2.098   2.048   2.123   2.083   2.064   1.938   1.926   1.864   1.790   1.820   1.925   1.980   2.014   2.112   2.046   2.229   2.112   2.159   2.171   2.264   2.197   2.219   2.148   2.046   2.110   1.958   2.021   2.145   2.259   2.272   2.225   2.094   2.018   1.954   2.089   2.029   1.985   1.935
   211.00    2.045   2.129   2.074   2.086   1.950   1.970   1.949   2.099   2.094   2.045   1.926   2.037   2.136   2.109   2.077   1.939   1.906   1.982   1.920   1.826   1.946   1.950   1.778   1.760   1.972   2.015   2.070   2.023   1.967   1.899   2.006   2.127   2.291   2.213   2.275   2.244   2.176   2.222   2.089   2.013   2.027   1.985   1.835   1.996   1.955   2.038   2.000   2.152   2.033   1.946   2.081   2.119   2.118   2.165   2.181   2.149   2.149   2.193   2.181   2.172   2.135   2.063   2.026   2.172   2.286   2.134   2.215   2.201   2.081   1.990   1.872   1.809   1.816
   206.00    2.122   2.175   2.067   1.951   2.043   2.013   2.037   2.083   2.071   2.163   1.955   2.030   2.048   2.005   2.080   1.937   1.982   1.994   1.921   1.964   2.106   1.845   1.812   1.885   2.038   2.106   2.081   1.903   1.978   1.916   1.927   2.091   2.202   2.181   2.280   2.321   2.321   2.268   2.130   2.048   2.102   1.965   1.874   1.958   2.036   2.092   2.129   2.106   2.102   2.069   2.128   2.181   2.114   2.067   2.081   2.116   2.124   2.044   2.151   2.205   2.064   2.072   2.177   2.180   2.091   2.093   2.172   2.044   2.159   2.005   1.938   1.845   1.770
   201.00    2.195   2.195   2.154   2.027   1.972   1.884   2.066   2.252   2.289   2.010   2.012   2.022   1.929   1.974   2.037   1.956   1.898   1.827   1.990   1.908   2.049   1.831   1.798   1.840   1.907   2.081   2.147   1.944   2.004   2.144   1.993   2.087   2.239   2.169   2.194   2.281   2.391   2.173   2.033   2.096   2.300   2.217   2.153   2.034   2.205   2.183   2.084   2.061   2.079   2.126   2.157   2.054   2.108   2.205   2.002   2.096   1.972   2.089   2.000   2.035   2.033   2.034   2.108   2.178   2.079   2.138   2.271   2.176   2.231   2.092   1.886   1.815   1.837
   196.00    2.241   2.299   2.357   2.078   2.022   2.087   2.145   2.150   2.124   1.999   1.932   2.124   2.050   2.048   2.006   1.942   1.929   1.941   2.000   1.968   2.004   1.858   1.864   1.880   1.895   1.992   2.049   2.025   2.030   2.021   2.204   2.158   2.328   2.254   2.326   2.329   2.170   2.207   2.150   2.153   2.263   2.200   2.180   2.042   2.162   2.230   2.099   1.945   2.058   2.176   2.168   1.979   2.002   2.094   2.059   2.021   2.046   1.976   2.068   1.925   2.012   1.997   2.040   2.058   1.990   2.220   2.185   2.143   2.202   2.179   1.902   1.794   1.735
   191.00    2.342   2.328   2.290   2.169   2.067   2.016   1.994   2.019   2.071   1.899   2.070   2.015   2.051   2.084   1.927   1.951   1.966   1.982   1.931   1.805   1.793   1.860   1.941   1.890   1.884   2.072   2.048   1.975   2.032   1.941   2.228   2.248   2.316   2.445   2.339   2.207   2.374   2.239   2.225   2.167   2.176   2.101   2.065   2.092   2.250   2.237   1.981   2.011   1.970   1.941   1.871   1.978   2.078   2.174   2.198   2.220   2.099   2.004   2.011   1.990   2.013   1.925   1.979   2.119   2.211   2.189   2.074   1.940   2.004   1.979   1.987   1.943   1.840
   186.00    2.189   2.267   2.334   2.078   2.072   2.090   2.098   1.999   1.943   2.045   2.087   2.087   2.165   2.060   2.024   1.939   1.862   1.832   1.782   1.794   1.663   1.865   1.839   1.895   1.858   1.989   1.984   1.880   1.921   1.829   1.994   2.191   2.248   2.154   2.356   2.287   2.239   2.139   2.115   2.153   2.115   2.081   2.040   2.167   2.193   2.124   1.982   1.904   1.901   1.858   1.868   2.000   2.105   2.128   2.048   2.252   2.244   2.185   2.094   2.208   2.164   1.866   1.989   2.085   2.010   2.013   1.969   2.135   2.045   1.910   1.956   1.938   1.960
   181.00    2.090   2.167   2.208   2.112   2.170   2.263   2.120   2.159   2.186   2.133   1.962   2.108   2.159   2.084   1.993   2.008   1.944   1.782   1.762   1.819   1.823   1.898   1.943   1.946   1.977   1.989   1.938   1.914   1.846   1.881   1.995   2.139   2.194   2.161   2.284   2.359   2.153   2.207   2.112   2.173   2.077   2.162   1.985   2.243   2.167   2.028   1.954   1.975   1.980   2.066   1.990   1.998   2.135   2.199   2.191   2.180   2.320   2.299   2.217   2.211   2.156   1.888   2.017   2.005   2.043   2.071   2.111   2.254   2.097   2.043   1.969   1.998   1.916
   176.00    2.082   2.084   2.067   2.049   2.235   2.219   2.298   2.350   2.383   2.087   2.075   2.184   2.139   2.200   2.086   2.074   2.037   1.936   1.908   1.872   1.901   1.975   1.821   1.875   1.952   1.916   1.944   1.825   1.882   1.893   2.065   2.157   2.064   2.224   2.299   2.417   2.253   2.176   2.024   2.182   2.108   2.142   2.118   2.213   2.184   2.073   2.005   2.065   2.080   2.016   2.087   2.125   2.096   2.088   2.258   2.266   2.282   2.241   2.240   2.266   2.277   2.242   2.223   2.160   2.147   2.124   2.046   2.204   2.018   2.020   2.035   2.025   2.004
   171.00    2.037   2.013   2.180   2.129   2.237   2.250   2.237   2.359   2.271   2.173   2.166   2.313   2.112   2.102   2.031   2.059   2.085   2.090   2.106   2.173   2.025   1.957   1.946   1.821   1.864   2.026   1.950   1.835   1.851   2.093   2.204   2.299   2.311   2.323   2.432   2.395   2.366   2.227   2.203   2.166   2.150   2.140   2.196   2.252   2.222   2.092   2.065   2.178   2.018   1.963   2.131   2.259   2.218   2.187   2.255   2.280   2.377   2.226   2.288   2.233   2.145   2.146   2.116   2.215   2.228   2.173   2.056   2.019   2.133   2.151   2.269   2.080   1.982
   166.00    2.164   2.223   2.266   2.410   2.368   2.300   2.381   2.441   2.380   2.270   2.273   2.338   2.152   1.988   1.950   1.961   2.077   1.901   2.102   2.094   1.973   1.830   1.946   1.959   1.972   2.051   1.983   1.790   1.959   2.042   2.188   2.302   2.444   2.407   2.434   2.306   2.313   2.241   2.260   2.180   2.240   2.276   2.204   2.225   2.170   2.138   2.234   2.151   2.127   2.129   2.270   2.409   2.197   2.163   2.216   2.293   2.356   2.299   2.184   2.245   2.160   2.183   2.193   2.122   2.215   2.266   2.035   2.009   2.152   2.107   2.198   2.175   2.060
   161.00    2.336   2.404   2.463   2.589   2.464   2.394   2.387   2.308   2.386   2.299   2.264   2.245   2.118   2.028   1.993   1.924   2.144   1.966   2.089   2.094   2.117   2.098   2.046   2.064   2.066   2.091   1.965   1.871   1.960   2.005   2.137   2.380   2.485   2.434   2.343   2.288   2.298   2.298   2.293   2.315   2.229   2.252   2.177   2.113   2.233   2.306   2.348   2.389   2.287   2.113   2.234   2.311   2.305   2.198   2.135   2.166   2.188   2.248   2.223   2.165   2.244   2.195   2.069   2.152   2.217   2.260   2.107   2.177   2.162   2.087   2.265   2.265   2.097
   156.00    2.424   2.450   2.493   2.625   2.529   2.285   2.271   2.346   2.304   2.389   2.120   2.170   2.158   2.069   1.920   1.968   2.135   2.178   2.086   2.075   2.134   2.206   2.209   2.124   2.191   2.011   1.930   2.004   1.983   2.129   2.095   2.108   2.214   2.376   2.404   2.326   2.285   2.313   2.302   2.342   2.243   2.318   2.167   2.137   2.205   2.337   2.221   2.160   2.269   2.221   2.187   2.156   2.245   2.195   2.055   2.049   2.150   2.133   2.101   2.126   2.131   2.062   2.126   2.170   2.124   2.339   2.042   2.012   1.966   2.242   2.141   2.288   2.188
   151.00    2.347   2.421   2.498   2.656   2.492   2.364   2.395   2.316   2.318   2.389   2.211   2.202   2.208   2.212   2.181   2.201   2.241   2.201   2.158   2.248   2.034   2.101   2.264   2.197   2.144   2.197   2.185   2.073   2.099   2.218   2.169   2.047   2.150   2.319   2.302   2.186   2.236   2.200   2.199   2.277   2.268   2.193   2.134   2.161   2.129   2.056   2.073   2.127   2.099   1.926   2.068   2.115   2.197   2.034   1.966   2.024   2.108   1.986   1.968   1.922   1.828   1.961   2.123   2.068   2.202   2.390   2.191   2.092   2.126   2.072   2.281   2.270   2.215
   146.00    2.384   2.360   2.519   2.676   2.494   2.433   2.443   2.390   2.491   2.400   2.151   2.085   2.154   2.240   2.374   2.360   2.310   2.288   2.244   2.223   2.076   2.188   2.348   2.229   2.222   2.204   2.162   2.212   2.279   2.249   2.154   2.050   2.018   2.149   2.291   2.194   2.202   2.108   2.198   2.198   2.341   2.293   2.125   1.959   2.070   1.863   1.859   1.831   1.980   1.839   2.019   2.089   2.174   2.203   2.047   2.150   2.241   2.097   1.942   1.827   1.791   1.912   2.087   2.098   2.179   2.326   2.145   2.093   2.035   2.080   2.272   2.363   2.351
   141.00    2.221   2.356   2.309   2.409   2.703   2.462   2.415   2.358   2.561   2.533   2.041   2.168   2.209   2.430   2.389   2.270   2.280   2.154   2.076   2.137   2.221   2.238   2.178   2.314   2.331   2.270   2.106   2.293   2.222   2.100   2.087   2.085   2.134   2.203   2.148   2.282   2.255   2.154   2.181   2.297   2.312   2.151   2.003   1.967   1.847   1.819   1.802   1.799   1.901   1.925   1.908   2.080   2.286   2.284   2.185   2.240   2.281   2.281   2.090   1.898   1.786   1.888   1.919   2.042   2.174   2.137   2.018   2.060   2.181   2.112   2.274   2.393   2.452
   136.00    2.008   2.128   2.214   2.460   2.615   2.378   2.460   2.380   2.321   2.263   2.151   2.146   2.470   2.466   2.360   2.223   2.340   2.234   2.337   2.132   2.213   2.188   2.254   2.323   2.176   2.161   2.215   2.252   2.243   2.132   2.081   2.247   2.192   2.189   2.278   2.190   2.244   2.305   2.297   2.416   2.214   2.207   2.064   1.903   1.708   1.793   1.810   1.869   1.969   2.046   1.952   2.105   2.213   2.305   2.289   2.167   2.305   2.254   2.039   1.939   1.932   1.936   1.951   2.054   2.024   1.955   2.122   2.089   2.122   2.201   2.247   2.359   2.232
   131.00    1.865   2.117   2.185   2.347   2.451   2.211   2.401   2.393   2.353   2.282   2.223   2.125   2.259   2.344   2.395   2.241   2.274   2.301   2.266   2.256   2.076   2.039   2.122   2.104   2.179   2.254   2.241   2.369   2.253   2.295   2.220   2.071   2.167   2.220   2.279   2.183   2.061   2.219   2.379   2.425   2.234   2.329   2.188   1.963   1.938   1.808   1.889   1.869   1.982   2.048   2.138   2.184   2.061   2.117   2.311   2.285   2.219   2.278   2.133   2.193   2.116   2.065   2.058   1.987   2.139   2.128   2.145   2.158   2.147   2.161   2.187   2.164   2.261
   126.00    1.940   2.076   2.065   2.215   2.278   2.193   2.304   2.276   2.273   2.309   2.094   2.104   2.148   2.252   2.217   2.180   2.225   2.173   2.118   1.950   1.849   1.982   2.084   2.062   2.062   2.189   2.413   2.480   2.211   2.360   2.191   2.134   2.163   2.214   2.171   2.083   2.084   2.160   2.321   2.352   2.214   2.242   2.055   2.040   2.027   1.993   1.986   1.895   2.012   2.219   2.253   2.211   2.185   2.328   2.390   2.314   2.365   2.379   2.220   2.207   2.050   2.109   2.118   2.061   2.041   2.087   2.154   2.282   2.130   2.134   2.129   2.238   2.183
   121.00    1.953   1.906   2.158   2.236   2.364   2.252   2.143   2.266   2.184   2.194   1.990   2.039   2.214   2.175   1.998   2.119   2.135   2.092   2.035   1.963   2.061   2.008   2.001   2.072   2.048   2.035   2.075   2.302   2.283   2.346   2.243   2.122   2.123   2.151   2.040   1.901   2.069   1.967   2.089   2.189   2.234   2.123   2.010   2.115   2.077   2.180   1.950   1.913   2.113   2.180   2.268   2.284   2.172   2.283   2.163   2.253   2.285   2.120   2.179   2.075   2.151   2.075   2.128   2.115   1.952   2.175   2.226   2.205   2.126   2.010   2.052   2.205   2.060
   116.00    1.862   1.898   2.127   2.189   2.409   2.438   2.389   2.218   2.203   2.088   2.038   2.054   2.235   2.295   2.269   2.188   2.266   2.228   2.169   2.233   2.108   1.967   2.104   2.089   2.005   2.089   2.149   2.290   2.124   2.130   2.152   1.971   2.012   1.980   1.940   1.903   2.110   2.060   2.026   2.127   2.258   2.235   2.128   1.933   1.941   2.126   2.258   2.013   1.973   2.042   2.179   2.333   2.314   2.201   2.258   2.161   2.355   2.103   2.151   2.152   2.115   2.238   2.324   2.288   2.196   2.250   2.273   2.128   1.866   1.857   2.004   2.070   2.057
   111.00    1.802   1.839   2.009   2.304   2.423   2.328   2.262   2.249   2.033   2.118   2.002   1.871   2.058   2.079   2.188   2.122   2.185   2.130   2.278   2.265   2.214   2.276   1.976   2.138   2.178   1.957   2.144   2.135   2.116   2.094   1.981   1.986   1.956   2.075   2.019   1.898   2.145   2.148   2.185   2.206   2.242   2.312   2.379   2.082   2.024   2.131   2.274   2.062   2.050   2.129   2.120   2.298   2.135   2.030   2.152   2.092   2.230   2.033   2.084   2.133   2.158   2.301   2.260   2.297   2.134   2.092   2.209   2.008   1.824   1.797   2.078   2.091   2.089
   106.00    2.007   1.930   1.989   2.181   2.302   2.379   2.344   2.306   2.237   2.044   2.005   1.989   2.099   2.017   2.118   2.143   2.145   2.260   2.260   2.320   2.351   2.261   2.206   2.108   2.077   2.156   2.228   2.062   2.058   1.906   2.160   2.013   2.015   2.097   2.034   2.135   2.078   2.240   2.244   2.175   2.288   2.294   2.399   2.136   2.042   2.219   2.111   2.009   2.003   2.116   2.137   2.213   2.096   1.929   2.015   2.101   2.145   2.047   2.073   2.115   2.124   2.235   2.251   2.211   2.055   2.075   2.017   1.961   1.911   2.076   2.246   2.237   2.083
   101.00    1.898   2.155   2.244   2.103   2.169   2.266   2.226   2.296   2.252   2.245   2.104   1.961   1.998   1.960   2.040   2.097   2.109   2.157   2.227   2.242   2.208   2.332   2.203   2.192   2.041   2.247   2.097   2.062   1.988   1.906   1.889   1.906   1.978   2.113   2.078   2.035   1.997   2.026   2.013   2.211   2.313   2.471   2.431   2.232   2.275   2.271   2.079   2.099   2.062   2.136   2.135   2.272   2.148   2.093   1.983   2.118   2.073   2.233   2.235   2.177   2.128   2.106   2.168   2.107   1.951   1.943   1.905   1.778   1.920   1.972   2.115   2.126   2.227
    96.00    2.156   2.174   2.309   2.101   2.137   2.300   2.334   2.259   2.312   2.277   2.046   2.067   1.970   1.998   1.998   2.061   2.045   2.114   2.058   2.101   2.043   2.173   2.114   2.021   2.093   2.182   2.353   2.103   2.044   2.123   1.974   1.863   1.916   2.111   2.235   2.071   2.133   2.040   2.173   2.229   2.306   2.330   2.346   2.138   2.270   2.309   2.241   2.101   2.029   1.944   2.124   2.210   2.070   1.988   2.043   2.071   2.225   2.118   2.211   2.194   2.030   2.048   2.049   1.986   2.081   1.999   1.915   1.830   1.957   2.034   2.129   2.057   2.168
    91.00    2.233   2.194   2.112   2.137   2.284   2.188   2.221   2.176   2.123   2.065   1.988   1.902   1.890   1.934   2.094   2.164   2.245   2.139   2.039   1.887   2.023   2.100   2.079   2.008   2.064   2.220   2.209   2.140   2.120   2.011   1.925   1.953   1.930   1.960   2.173   2.153   2.057   2.085   2.053   1.972   2.162   2.092   2.088   2.168   2.203   2.159   2.095   2.071   2.097   1.929   2.083   2.076   2.086   2.159   2.160   2.011   2.130   2.134   2.186   2.201   2.079   2.030   1.991   2.002   2.091   1.980   1.915   1.796   1.852   1.858   1.871   1.958   2.070
    86.00    2.193   2.159   2.127   2.235   2.309   2.281   2.207   2.233   2.093   2.109   1.976   1.806   1.887   1.923   2.034   2.129   2.226   2.108   1.994   1.976   2.054   2.053   2.066   2.001   2.073   2.232   2.186   2.129   1.963   1.992   1.834   1.808   1.900   2.001   2.090   2.171   2.119   2.200   2.133   1.994   1.978   1.991   2.141   2.154   2.059   2.055   2.105   2.085   2.026   2.164   2.077   2.098   2.123   2.061   2.154   2.208   2.273   2.122   2.170   2.131   2.094   2.059   1.933   1.751   1.848   1.869   1.846   1.770   1.802   1.832   1.917   1.813   2.003
    81.00    2.140   2.102   2.120   2.109   2.124   2.119   2.078   2.278   2.257   2.214   2.041   2.078   1.933   1.925   2.046   2.103   2.141   2.124   1.981   2.068   2.162   2.083   2.173   2.013   2.097   2.149   2.217   2.199   1.910   2.026   1.895   1.885   1.952   1.989   2.051   2.027   1.960   2.109   2.235   2.216   2.071   2.163   2.211   2.107   1.899   1.953   1.930   1.781   1.894   2.031   2.006   2.190   2.131   2.173   2.177   2.117   2.099   2.160   2.092   1.983   2.017   1.956   1.834   1.948   1.839   1.741   1.881   1.781   1.754   1.840   1.842   1.886   2.043
    76.00    2.255   2.164   2.197   2.098   2.051   2.106   2.167   2.286   2.173   2.108   1.990   2.025   2.034   2.150   2.171   1.995   1.970   1.899   1.949   1.977   2.103   2.153   2.092   2.020   2.066   2.149   2.242   2.104   2.120   1.869   1.830   2.016   1.956   1.966   2.149   2.183   2.075   2.056   2.242   2.207   2.099   2.084   2.199   2.038   2.025   1.941   1.832   1.791   1.920   1.975   2.012   1.937   2.160   2.295   2.180   2.053   2.139   2.275   2.211   2.013   1.978   1.940   1.944   1.882   1.792   1.689   1.856   1.824   1.791   1.730   1.811   1.916   1.934
    71.00    1.996   2.047   2.082   2.011   2.065   2.026   2.141   2.152   2.160   2.008   2.016   1.983   2.043   2.152   2.140   2.100   1.988   1.880   2.004   1.934   2.120   1.998   2.035   2.075   2.106   2.097   2.054   2.221   2.169   2.072   2.000   1.927   1.949   2.048   2.257   2.237   2.269   2.128   2.314   2.236   2.316   2.187   2.265   1.953   1.993   1.995   1.946   1.976   1.923   1.941   2.041   1.989   2.183   2.133   2.240   2.172   2.107   2.088   2.189   2.098   1.974   1.982   1.975   1.797   1.765   1.705   1.732   1.675   1.704   1.668   1.857   1.961   2.004
    66.00    1.981   1.938   2.070   2.072   2.007   1.992   2.080   2.150   2.118   1.984   2.074   2.123   2.015   2.106   2.020   1.929   1.989   1.975   1.925   1.978   2.090   1.947   2.104   1.985   2.018   1.939   2.192   2.126   2.208   2.053   2.091   1.962   2.000   1.996   2.098   2.052   2.240   2.253   2.320   2.234   2.186   2.126   2.047   2.037   1.975   2.089   1.987   2.002   1.967   2.046   2.065   2.141   2.196   2.130   2.077   2.134   2.132   2.070   2.077   2.060   1.937   1.878   1.949   1.955   1.810   1.626   1.654   1.686   1.804   1.699   1.868   1.958   2.078
    61.00    1.950   1.961   2.020   2.040   1.988   1.986   2.018   2.052   2.096   2.024   2.042   1.988   2.103   2.254   2.047   1.998   2.064   2.229   2.132   2.032   2.042   2.086   2.001   2.058   2.062   2.038   2.081   2.042   2.145   1.930   1.937   1.830   1.887   1.910   2.008   2.032   2.062   2.316   2.133   2.174   2.108   1.959   2.028   2.229   2.127   1.979   2.035   1.915   2.020   1.962   2.095   2.155   2.197   2.237   2.208   2.126   2.067   2.006   1.896   1.852   1.788   1.777   1.863   1.948   1.813   1.791   1.848   1.710   1.719   1.807   1.813   1.957   2.073
    56.00    1.975   1.878   2.008   2.085   2.041   2.065   2.049   2.090   2.016   2.106   1.974   2.047   2.045   2.121   2.052   1.963   1.990   2.129   2.172   2.000   2.001   2.006   2.141   2.106   2.143   2.001   1.951   2.087   1.944   1.791   1.909   2.011   1.925   2.042   1.949   2.054   2.054   2.223   2.189   2.202   2.152   1.932   2.048   2.134   2.097   2.054   2.083   1.952   2.015   2.080   2.151   2.105   2.127   2.260   2.156   2.105   2.003   1.982   1.917   1.906   1.791   1.817   1.944   1.892   1.774   1.800   1.729   1.674   1.667   1.787   1.919   2.010   2.015
    51.00    1.957   2.025   1.766   1.946   2.140   2.171   2.185   2.253   2.223   2.173   2.103   2.087   2.020   1.985   1.970   1.923   2.067   1.941   1.942   2.145   2.078   1.896   2.006   2.137   2.110   1.991   2.092   2.003   2.081   1.982   2.002   1.989   2.032   1.945   1.985   2.016   2.063   2.102   2.025   2.119   2.108   2.256   2.139   2.091   1.972   1.971   2.220   2.085   2.022   2.210   2.258   2.230   2.034   2.231   2.039   2.082   2.084   1.998   1.888   1.852   1.852   1.978   2.060   2.079   1.948   1.851   1.768   1.756   1.759   1.838   1.945   1.961   1.873
    46.00    1.949   2.006   1.953   2.068   2.177   2.208   2.283   2.382   2.478   2.351   2.156   2.130   2.108   2.089   2.054   1.938   2.128   2.085   2.151   2.116   2.043   1.939   1.798   1.983   2.054   1.999   2.050   1.999   1.987   2.085   1.875   2.014   2.046   1.949   2.093   2.103   1.995   1.910   2.137   2.067   2.120   2.152   2.015   1.976   1.977   1.965   2.159   2.037   1.868   2.104   2.150   2.156   2.156   2.142   2.086   2.183   2.055   2.140   2.030   1.891   1.974   1.979   2.024   1.979   1.971   1.895   1.849   1.808   1.768   1.954   2.000   1.973   1.960
    41.00    1.932   1.861   1.787   2.063   2.182   2.300   2.338   2.459   2.362   2.418   2.335   2.214   2.195   2.082   2.090   2.208   2.225   2.167   2.182   2.119   2.115   1.889   1.800   1.934   1.973   1.809   2.003   1.941   2.036   2.082   2.101   2.036   2.000   1.980   2.043   2.074   2.125   2.073   2.067   2.156   2.219   2.093   2.091   2.063   2.053   2.003   2.165   2.197   2.009   2.178   2.173   2.037   1.964   1.992   2.172   2.122   2.085   1.938   1.993   2.029   2.235   1.964   2.018   1.841   1.907   1.956   1.883   1.837   2.012   1.972   1.936   1.863   1.804
    36.00    2.123   2.130   1.913   2.082   2.159   2.277   2.254   2.363   2.311   2.413   2.323   2.160   2.251   2.194   2.418   2.298   2.376   2.187   2.220   2.101   2.029   1.891   1.838   1.886   1.952   2.019   1.936   1.994   1.981   1.994   2.098   2.126   2.027   2.068   2.049   2.170   2.195   2.133   2.226   2.195   2.091   2.111   1.913   2.039   2.059   2.067   2.067   2.021   1.960   2.113   2.130   2.111   1.996   1.954   2.020   2.029   1.927   1.833   2.000   2.050   2.277   2.184   2.096   1.920   1.939   1.963   2.045   2.079   1.996   1.863   1.822   1.863   1.882
    31.00    2.253   2.158   2.114   2.170   2.265   2.314   2.342   2.449   2.426   2.376   2.399   2.405   2.448   2.448   2.392   2.354   2.368   2.136   2.299   2.130   2.006   1.830   1.895   1.846   1.993   2.079   1.892   2.021   2.028   2.118   2.079   1.982   2.058   2.154   2.159   2.178   2.307   2.095   2.169   2.155   2.133   2.180   1.904   1.860   2.043   2.107   2.013   1.841   2.017   2.134   2.173   2.126   2.085   2.002   2.000   1.990   1.941   1.996   2.063   2.125   2.140   2.238   1.977   1.823   1.858   1.828   2.021   1.977   1.987   1.973   1.857   2.031   1.849
    26.00    2.260   2.114   2.133   2.351   2.475   2.386   2.336   2.531   2.606   2.513   2.479   2.300   2.386   2.340   2.284   2.355   2.357   2.217   2.275   2.183   2.062   1.985   1.936   2.109   2.108   2.021   2.003   2.141   2.063   2.155   2.067   2.092   2.140   2.242   2.216   2.162   2.300   2.081   2.098   2.102   2.087   2.058   2.013   1.892   1.954   2.009   1.914   1.889   1.950   2.081   2.123   2.044   1.970   1.950   1.986   1.987   2.058   2.077   2.178   2.134   2.122   2.092   1.956   1.708   1.812   1.860   1.930   1.983   1.865   1.977   2.093   2.011   1.924
    21.00    2.247   2.241   2.074   2.236   2.322   2.258   2.333   2.369   2.515   2.592   2.463   2.296   2.411   2.222   2.235   2.299   2.359   2.291   2.128   2.234   2.124   2.110   2.061   2.162   2.123   2.250   2.162   2.139   2.290   2.365   2.249   1.994   2.071   2.233   2.150   2.175   2.095   1.994   2.037   2.115   2.118   2.181   2.256   2.109   1.980   1.920   1.896   1.966   2.002   2.060   2.096   2.238   2.045   1.994   2.004   1.940   2.069   2.195   2.109   2.132   2.114   1.982   2.117   1.884   1.842   1.929   1.908   1.806   1.936   1.894   1.963   1.918   1.966
    16.00    2.177   2.330   2.246   2.298   2.185   2.284   2.223   2.374   2.527   2.657   2.526   2.452   2.430   2.304   2.114   2.231   2.241   2.217   2.173   2.185   2.048   2.121   2.095   2.122   2.191   2.167   2.035   2.078   2.190   2.291   2.236   2.092   2.184   2.322   2.136   2.122   2.074   1.964   1.969   1.974   2.149   2.192   2.154   2.161   2.092   1.993   2.016   2.010   2.113   2.097   2.155   2.143   2.257   2.120   2.135   2.092   2.024   2.150   2.174   2.141   2.080   1.997   2.039   2.134   1.888   1.958   1.889   1.918   1.837   1.800   2.036   1.880   2.064
    11.00    2.282   2.271   2.205   2.096   2.090   2.282   2.401   2.323   2.487   2.549   2.424   2.328   2.289   2.191   2.175   2.207   2.107   2.201   2.184   2.128   2.070   2.120   2.228   2.114   2.272   2.136   2.120   2.015   2.134   2.189   2.310   2.155   2.193   2.132   2.227   2.052   2.065   2.033   1.834   1.931   2.085   2.219   2.192   2.090   2.241   2.119   2.129   2.118   1.993   2.011   2.046   2.215   2.241   2.260   2.168   2.143   2.196   2.121   2.073   2.003   2.054   2.026   2.019   2.101   2.106   1.993   1.940   1.839   1.775   1.875   1.942   1.930   2.141
     6.00    2.255   2.151   2.091   2.031   2.101   2.250   2.282   2.472   2.440   2.371   2.255   2.278   2.062   2.089   2.155   2.100   2.103   2.061   2.109   1.958   1.946   2.161   2.095   2.229   2.178   2.160   2.069   2.171   2.042   2.155   2.173   2.197   2.216   2.058   2.257   2.051   2.027   1.986   1.929   2.048   2.061   2.146   2.098   2.186   2.191   2.231   2.204   2.194   2.020   1.980   2.060   2.047   2.062   2.022   2.156   2.288   2.214   2.133   2.121   2.148   1.981   1.966   1.991   2.066   1.933   1.878   1.776   1.796   1.759   1.976   2.077   1.961   2.075
     1.00    2.147   2.035   2.120   2.038   2.081   2.271   2.323   2.278   2.380   2.368   2.166   2.110   2.179   2.031   1.933   2.012   2.130   2.100   2.021   2.018   2.072   2.209   2.211   2.257   2.174   2.073   2.033   2.143   2.078   2.168   2.177   2.090   2.106   2.029   2.130   2.036   2.053   1.948   2.030   2.085   2.137   2.062   2.031   2.078   2.184   2.134   2.156   2.154   2.097   2.126   2.092   2.129   2.074   2.189   2.139   2.171   2.043   2.128   2.082   2.062   2.063   1.925   1.956   1.981   1.922   2.021   1.846   1.838   1.943   1.952   2.141   2.082   2.317

   Height   Standard deviation at grid points for the v component:
   301.00    1.939   1.896   1.988   2.101   2.207   2.123   2.148   2.044   1.892   1.911   1.897   1.937   1.879   1.888   1.935   1.860   1.906   1.979   2.009   1.993   1.952   1.999   1.857   1.712   1.725   1.761   1.787   1.822   1.832   1.966   1.993   1.980   1.844   1.913   1.946   1.892   2.031   1.951   2.023   1.897   1.808   1.773   1.729   1.798   1.735   1.707   1.710   1.675   1.657   1.685   1.679   1.693   1.702   1.696   1.636   1.688   1.720   1.717   1.753   1.846   1.849   1.792   1.971   2.103   2.125   2.179   2.228   1.947   1.713   1.919   1.825   1.764   1.851
   296.00    2.000   1.858   1.925   2.012   2.119   2.058   2.018   1.945   2.002   1.926   1.932   1.878   1.846   1.883   1.869   1.861   1.888   1.995   1.922   1.945   1.958   1.921   1.795   1.758   1.694   1.736   1.768   1.826   1.862   1.858   1.960   1.848   1.880   1.870   1.920   1.984   2.074   2.097   2.065   1.950   1.944   1.728   1.787   1.861   1.750   1.589   1.772   1.698   1.682   1.678   1.581   1.675   1.649   1.659   1.735   1.587   1.771   1.705   1.672   1.817   1.838   1.843   1.940   2.056   2.006   2.052   2.137   1.855   1.917   1.894   1.722   1.833   1.855
   291.00    1.785   1.857   1.865   2.000   2.019   1.950   1.956   1.963   1.934   1.922   1.925   1.916   1.814   1.895   1.914   1.883   1.849   1.939   1.961   1.924   2.009   1.907   1.874   1.750   1.839   1.863   1.773   1.736   1.773   1.814   1.868   1.919   1.862   1.828   1.918   1.962   1.965   2.025   2.103   1.957   2.077   1.844   1.799   1.823   1.815   1.785   1.758   1.684   1.769   1.717   1.699   1.636   1.628   1.716   1.672   1.768   1.726   1.671   1.651   1.755   1.748   1.764   1.785   1.987   2.039   1.951   1.983   1.888   1.861   1.824   1.824   1.932   1.905
   286.00    1.761   1.682   1.727   1.839   1.901   1.962   1.958   1.885   1.815   1.948   1.967   1.977   1.830   1.871   1.867   1.904   1.849   1.856   1.898   1.843   1.881   1.848   1.850   1.808   1.844   1.727   1.839   1.854   1.783   1.713   1.838   1.935   1.851   1.895   2.049   2.040   2.009   2.083   2.033   1.962   2.013   1.912   1.910   1.864   1.774   1.808   1.814   1.804   1.794   1.657   1.596   1.602   1.635   1.629   1.718   1.752   1.789   1.811   1.641   1.661   1.674   1.783   1.763   1.908   1.948   1.947   1.846   1.955   1.883   1.957   1.864   1.865   1.754
   281.00    1.670   1.653   1.750   1.738   1.771   1.798   1.860   1.978   1.833   1.873   1.893   1.930   1.821   1.782   1.723   1.858   1.820   1.730   1.853   1.838   1.832   1.827   1.795   1.798   1.842   1.840   1.837   1.874   1.833   1.799   1.826   1.857   1.887   1.848   2.063   2.059   2.041   2.071   1.740   1.863   1.953   2.055   1.953   1.913   1.838   1.791   1.876   1.974   1.750   1.708   1.635   1.572   1.645   1.662   1.737   1.817   1.828   1.776   1.727   1.634   1.535   1.662   1.772   1.800   1.837   1.937   1.844   2.006   1.921   1.932   1.932   1.847   1.804
   276.00    1.674   1.695   1.669   1.718   1.755   1.722   1.828   1.814   1.844   1.789   1.886   1.923   1.838   1.775   1.668   1.699   1.758   1.823   1.811   1.832   1.714   1.806   1.820   1.759   1.826   1.776   1.834   1.804   1.768   1.741   1.689   1.920   1.878   1.907   2.040   2.063   2.025   1.873   1.837   1.811   1.953   2.022   2.062   1.976   1.950   1.861   1.862   1.820   1.780   1.729   1.668   1.572   1.582   1.639   1.684   1.780   1.755   1.761   1.721   1.594   1.549   1.546   1.639   1.814   2.097   2.017   2.037   1.976   1.871   2.016   2.018   1.974   1.866
   271.00    1.583   1.562   1.631   1.752   1.757   1.799   1.792   1.783   1.793   1.831   1.882   1.893   1.794   1.806   1.780   1.750   1.651   1.678   1.766   1.846   1.676   1.727   1.816   1.892   1.804   1.787   1.808   1.820   1.718   1.822   1.837   1.922   1.999   2.023   2.011   1.941   1.927   1.809   1.731   1.781   1.933   1.969   2.009   1.977   1.985   1.862   1.848   1.840   1.789   1.775   1.760   1.725   1.688   1.757   1.709   1.734   1.828   1.858   1.672   1.545   1.551   1.563   1.683   1.857   1.963   1.974   1.992   1.865   1.921   1.931   2.059   1.953   1.912
   266.00    1.620   1.593   1.682   1.753   1.802   1.884   1.859   1.824   1.817   1.927   1.895   1.800   1.738   1.771   1.737   1.760   1.687   1.687   1.715   1.739   1.750   1.735   1.756   1.880   1.915   1.930   1.875   1.866   1.840   1.922   2.002   2.118   2.049   1.900   1.947   2.006   1.912   1.868   1.789   1.908   1.944   1.930   1.956   1.878   1.933   1.875   1.979   1.957   1.856   1.745   1.792   1.768   1.800   1.770   1.836   1.834   1.828   1.724   1.695   1.594   1.626   1.645   1.678   1.804   1.803   1.981   1.878   1.782   1.815   1.922   1.834   1.939   2.067
   261.00    1.785   1.610   1.556   1.633   1.724   1.777   1.830   1.881   1.845   1.809   1.744   1.725   1.693   1.698   1.747   1.713   1.696   1.589   1.654   1.654   1.591   1.653   1.737   1.854   1.852   1.860   1.866   1.909   2.057   2.053   2.160   2.082   1.886   1.824   1.900   2.015   1.926   1.833   1.835   1.886   1.923   1.935   1.937   1.853   1.776   1.805   1.904   1.896   1.722   1.761   1.729   1.718   1.661   1.711   1.747   1.735   1.781   1.689   1.650   1.572   1.562   1.684   1.629   1.665   1.768   1.749   1.840   1.936   1.856   1.852   1.855   1.883   1.943
   256.00    1.844   1.647   1.702   1.685   1.719   1.730   1.810   1.823   1.768   1.801   1.761   1.717   1.725   1.730   1.847   1.833   1.730   1.613   1.652   1.640   1.593   1.612   1.712   1.851   1.940   1.845   1.947   1.917   1.890   1.947   2.159   1.919   1.864   1.879   1.969   1.963   1.986   1.774   1.785   1.799   1.789   1.848   1.857   1.817   1.720   1.761   1.867   1.770   1.767   1.884   1.757   1.691   1.668   1.724   1.816   1.698   1.624   1.566   1.637   1.542   1.567   1.703   1.703   1.711   1.664   1.684   1.782   1.823   1.911   1.839   1.762   1.701   1.795
   251.00    1.765   1.708   1.739   1.797   1.663   1.771   1.696   1.776   1.758   1.687   1.758   1.778   1.753   1.742   1.797   1.764   1.736   1.644   1.576   1.645   1.657   1.771   1.759   1.762   1.791   1.860   1.839   1.854   1.925   1.822   1.997   2.017   1.952   1.932   1.883   1.955   1.788   1.805   1.862   1.823   1.818   1.859   1.930   1.880   1.867   1.845   1.797   1.806   1.853   1.832   1.731   1.725   1.782   1.742   1.666   1.677   1.695   1.662   1.619   1.662   1.632   1.667   1.766   1.723   1.618   1.765   1.751   1.678   1.743   1.821   1.732   1.794   1.796
   246.00    1.671   1.647   1.727   1.817   1.759   1.744   1.510   1.670   1.638   1.687   1.841   1.900   1.733   1.709   1.829   1.722   1.676   1.663   1.646   1.721   1.735   1.771   1.805   1.839   1.851   1.909   1.812   1.755   1.902   1.853   1.834   1.994   2.106   1.921   1.894   1.858   1.827   1.734   1.616   1.677   1.755   1.874   1.840   1.971   1.848   1.823   1.735   1.683   1.832   1.843   1.811   1.797   1.793   1.692   1.633   1.672   1.657   1.690   1.717   1.652   1.652   1.663   1.764   1.828   1.730   1.720   1.709   1.645   1.651   1.746   1.705   1.750   1.805
   241.00    1.639   1.659   1.706   1.699   1.737   1.761   1.685   1.691   1.740   1.695   1.845   1.960   1.804   1.856   1.847   1.755   1.751   1.695   1.709   1.664   1.598   1.680   1.828   1.900   1.911   1.948   1.801   1.763   1.749   1.802   1.752   1.895   1.918   1.996   1.908   1.768   1.748   1.647   1.550   1.720   1.739   1.784   1.867   1.820   1.943   1.877   1.771   1.785   1.794   1.771   1.822   1.682   1.728   1.605   1.600   1.671   1.664   1.656   1.707   1.650   1.649   1.732   1.576   1.760   1.821   1.770   1.785   1.714   1.759   1.732   1.657   1.723   1.714
   236.00    1.522   1.568   1.526   1.637   1.757   1.811   1.635   1.782   1.714   1.770   1.891   1.934   1.922   1.919   1.849   1.720   1.767   1.754   1.679   1.649   1.646   1.749   1.903   1.856   1.919   1.933   1.868   1.793   1.788   1.742   1.722   1.821   1.829   1.843   1.843   1.702   1.655   1.669   1.549   1.764   1.743   1.829   1.906   1.939   1.987   1.965   1.870   1.921   1.877   1.830   1.817   1.709   1.706   1.678   1.543   1.665   1.708   1.727   1.774   1.667   1.601   1.654   1.709   1.810   1.768   1.758   1.720   1.752   1.739   1.767   1.741   1.692   1.738
   231.00    1.616   1.606   1.744   1.678   1.678   1.736   1.675   1.689   1.703   1.887   1.884   1.928   1.931   1.927   1.776   1.784   1.871   1.851   1.688   1.583   1.691   1.654   1.733   1.701   1.846   1.833   1.823   1.723   1.671   1.729   1.707   1.686   1.771   1.834   1.816   1.727   1.689   1.787   1.804   1.832   1.851   1.849   1.932   2.035   1.940   1.811   1.815   1.975   1.805   1.803   1.811   1.701   1.639   1.569   1.672   1.658   1.662   1.702   1.737   1.785   1.680   1.717   1.691   1.737   1.769   1.781   1.793   1.784   1.641   1.669   1.646   1.741   1.806
   226.00    1.660   1.672   1.694   1.654   1.666   1.630   1.654   1.599   1.708   1.803   1.891   1.858   1.939   1.854   1.839   1.928   1.897   1.818   1.709   1.684   1.671   1.743   1.691   1.703   1.742   1.650   1.704   1.710   1.714   1.696   1.839   1.796   1.838   1.796   1.664   1.727   1.829   1.904   1.800   1.802   1.760   1.914   1.892   1.956   1.898   1.844   1.862   2.018   1.849   1.850   1.823   1.646   1.598   1.612   1.684   1.674   1.696   1.628   1.633   1.607   1.719   1.803   1.853   1.750   1.747   1.863   1.818   1.745   1.611   1.649   1.622   1.660   1.700
   221.00    1.717   1.644   1.689   1.712   1.718   1.705   1.569   1.649   1.751   1.761   1.860   1.818   1.814   1.828   1.810   1.868   1.777   1.784   1.797   1.810   1.839   1.760   1.686   1.660   1.705   1.732   1.716   1.763   1.736   1.755   1.734   1.860   1.894   1.820   1.751   1.787   1.844   1.785   1.790   1.902   1.865   1.973   1.823   1.861   1.814   1.705   1.769   1.871   1.761   1.793   1.704   1.595   1.592   1.666   1.653   1.627   1.683   1.691   1.701   1.591   1.663   1.781   1.861   1.756   1.809   1.796   1.712   1.671   1.648   1.680   1.713   1.712   1.800
   216.00    1.767   1.710   1.748   1.739   1.743   1.695   1.612   1.635   1.686   1.728   1.696   1.749   1.751   1.803   1.776   1.836   1.780   1.870   1.916   1.851   1.818   1.751   1.677   1.819   1.790   1.763   1.749   1.891   1.853   1.756   1.820   1.729   1.972   2.027   1.889   1.765   1.831   1.840   1.962   1.927   1.865   1.850   1.830   1.906   1.813   1.806   1.851   1.775   1.829   1.867   1.704   1.515   1.612   1.633   1.584   1.614   1.738   1.690   1.745   1.713   1.637   1.910   1.912   1.810   1.964   1.841   1.708   1.667   1.670   1.706   1.667   1.741   1.796
   211.00    1.645   1.672   1.667   1.795   1.791   1.724   1.686   1.634   1.685   1.670   1.649   1.680   1.673   1.711   1.728   1.836   1.887   1.876   1.960   1.892   1.847   1.777   1.795   1.877   1.904   1.906   1.973   2.007   1.981   1.996   1.974   1.988   2.056   2.092   1.874   1.739   1.798   1.897   1.843   1.785   1.770   1.931   1.913   1.886   1.941   1.798   1.787   1.848   1.874   1.953   1.672   1.735   1.646   1.565   1.625   1.671   1.844   1.754   1.791   1.775   1.743   1.840   1.759   1.833   1.978   1.893   1.824   1.687   1.649   1.634   1.699   1.691   1.830
   206.00    1.625   1.643   1.722   1.824   1.793   1.817   1.818   1.772   1.691   1.571   1.550   1.669   1.719   1.645   1.690   1.762   1.801   1.956   1.927   1.951   1.968   1.811   1.880   1.932   1.941   2.047   2.087   1.987   2.021   1.994   2.022   2.123   2.106   2.019   1.935   1.876   1.880   1.864   1.779   1.724   1.757   1.842   1.881   1.916   1.791   1.776   1.802   1.802   1.678   1.879   1.857   1.801   1.618   1.563   1.616   1.801   1.924   1.890   1.737   1.764   1.783   1.800   1.767   1.891   1.931   1.875   1.817   1.661   1.709   1.739   1.644   1.793   1.945
   201.00    1.632   1.674   1.700   1.810   1.836   1.832   1.797   1.769   1.686   1.509   1.638   1.722   1.768   1.718   1.710   1.764   1.807   1.919   2.052   2.074   2.150   1.974   1.962   1.943   1.945   2.002   1.884   1.884   1.884   1.896   1.962   2.141   2.143   2.013   2.033   2.039   1.825   1.907   1.800   1.766   1.738   1.887   1.855   1.842   1.642   1.740   1.856   1.845   1.915   1.997   1.822   1.799   1.803   1.637   1.580   1.771   1.841   1.845   1.925   1.857   1.821   1.837   1.797   1.975   1.890   1.964   1.855   1.761   1.748   1.724   1.822   1.815   1.900
   196.00    1.764   1.731   1.748   1.797   1.730   1.790   1.809   1.761   1.739   1.651   1.741   1.688   1.749   1.736   1.681   1.801   1.907   2.007   2.093   2.209   2.059   1.869   1.971   2.021   1.947   1.936   1.854   1.905   1.877   2.006   2.121   2.121   2.034   1.901   2.050   2.001   1.934   1.995   1.919   1.798   1.746   1.873   1.803   1.827   1.694   1.839   1.805   1.910   1.985   1.926   1.821   1.793   1.773   1.671   1.698   1.857   1.827   1.868   1.971   1.955   1.730   1.782   1.859   1.845   1.786   1.835   1.717   1.808   1.769   1.809   1.867   2.018   2.019
   191.00    1.718   1.705   1.778   1.729   1.783   1.745   1.822   1.905   1.853   1.711   1.673   1.665   1.674   1.761   1.832   1.845   2.006   1.982   2.130   2.127   2.038   1.925   1.925   1.982   1.881   1.921   1.929   1.966   1.915   2.001   1.982   2.025   2.049   2.073   1.943   1.986   1.829   1.930   2.032   2.009   1.982   1.940   1.819   1.830   1.828   1.884   1.997   1.918   1.955   1.840   1.860   1.909   1.974   1.882   1.820   1.853   1.784   2.010   1.962   1.941   1.892   1.718   1.778   1.762   1.783   1.685   1.696   1.723   1.651   1.798   1.944   1.967   2.078
   186.00    1.815   1.848   1.738   1.674   1.778   1.806   1.865   1.869   1.804   1.773   1.625   1.538   1.610   1.706   1.839   1.844   1.917   1.939   2.128   2.136   2.059   2.014   1.865   1.962   1.974   1.905   1.883   1.856   1.730   1.711   1.802   1.871   1.960   1.962   2.032   1.992   1.969   2.015   2.027   2.021   2.047   1.942   1.909   1.965   2.052   2.045   2.046   1.859   1.880   1.902   2.040   2.080   2.114   2.046   2.043   1.975   1.996   2.076   1.993   1.993   1.869   1.853   1.690   1.668   1.702   1.727   1.719   1.684   1.690   1.767   2.044   2.094   2.112
   181.00    1.896   1.852   1.752   1.638   1.792   1.761   1.855   1.788   1.761   1.729   1.610   1.599   1.600   1.673   1.758   1.853   1.870   1.993   1.927   2.034   1.957   1.966   2.040   1.970   1.947   1.987   1.974   1.865   1.745   1.686   1.629   1.783   1.849   1.929   2.012   2.039   2.095   2.184   2.101   2.189   1.983   1.982   1.906   2.007   2.025   2.019   2.083   2.004   2.007   1.935   2.023   2.152   2.160   2.071   2.114   2.091   2.148   2.053   1.967   1.979   1.990   1.898   1.688   1.676   1.641   1.584   1.708   1.750   1.737   1.742   1.968   2.094   2.037
   176.00    1.909   1.825   1.784   1.707   1.744   1.731   1.731   1.794   1.728   1.718   1.644   1.629   1.652   1.677   1.661   1.677   1.828   1.846   1.869   1.943   1.896   2.001   2.001   1.897   1.812   1.882   1.792   1.798   1.741   1.699   1.726   1.763   1.965   1.976   1.909   1.905   1.897   2.036   2.063   2.152   2.117   2.076   2.144   2.051   1.940   2.006   2.038   1.997   2.149   1.990   2.038   2.077   1.918   2.057   2.155   1.999   1.919   1.975   1.959   2.013   2.035   1.886   1.648   1.778   1.679   1.666   1.689   1.760   1.863   1.823   1.948   2.102   2.043
   171.00    1.844   1.796   1.804   1.852   1.739   1.713   1.668   1.719   1.732   1.680   1.738   1.692   1.732   1.747   1.746   1.736   1.772   1.669   1.668   1.835   1.884   1.990   1.990   1.864   1.774   1.818   1.747   1.752   1.841   1.726   1.863   1.928   1.950   1.972   1.889   1.926   2.062   2.084   2.191   2.148   2.094   2.151   2.098   2.074   1.990   1.916   1.839   1.918   2.057   2.065   2.151   2.053   2.044   2.043   2.088   1.997   1.847   1.811   2.014   2.077   2.156   2.040   1.793   1.673   1.796   1.749   1.857   1.864   1.919   1.839   1.885   1.982   1.915
   166.00    1.820   1.825   1.671   1.718   1.743   1.717   1.593   1.605   1.726   1.858   1.816   1.817   1.792   1.719   1.666   1.736   1.668   1.549   1.590   1.711   1.813   1.849   1.808   1.735   1.781   1.815   1.793   1.738   1.708   1.786   1.797   1.881   1.853   1.970   1.993   2.001   2.055   2.076   1.998   2.137   2.097   2.091   2.246   2.113   2.041   1.940   1.836   2.000   2.130   2.032   1.990   1.933   1.980   1.926   1.912   1.953   1.962   1.964   2.127   2.099   2.022   1.913   1.880   1.806   1.788   1.793   1.952   1.835   1.861   1.903   1.855   1.918   1.970
   161.00    1.755   1.850   1.759   1.683   1.761   1.613   1.539   1.456   1.660   1.779   1.781   1.771   1.717   1.796   1.722   1.734   1.689   1.610   1.677   1.651   1.695   1.807   1.754   1.726   1.711   1.693   1.772   1.757   1.768   1.647   1.670   1.807   1.814   1.836   1.921   1.879   1.920   1.883   2.013   1.945   1.990   2.210   2.243   2.266   2.097   2.014   1.928   1.952   2.023   2.001   1.930   1.941   1.844   1.812   1.927   1.986   1.959   1.887   2.040   1.938   1.996   2.105   1.888   1.860   1.886   1.828   1.860   1.803   1.791   1.954   1.890   1.932   2.030
   156.00    1.837   1.822   1.730   1.757   1.637   1.555   1.526   1.609   1.676   1.759   1.655   1.751   1.729   1.642   1.718   1.691   1.754   1.760   1.686   1.825   1.712   1.681   1.737   1.669   1.737   1.653   1.784   1.782   1.763   1.727   1.771   1.629   1.739   1.789   1.984   1.833   1.859   1.899   1.926   2.032   2.079   2.181   2.398   2.341   2.273   2.293   2.043   2.042   1.949   1.902   1.853   1.849   1.836   1.814   1.855   1.902   1.981   2.003   2.135   2.000   2.095   2.054   2.074   2.002   1.865   1.960   1.941   1.977   1.994   1.955   2.014   1.901   2.010
   151.00    1.814   1.839   1.817   1.771   1.669   1.711   1.673   1.570   1.698   1.720   1.784   1.832   1.769   1.743   1.789   1.772   1.818   1.652   1.750   1.706   1.668   1.609   1.689   1.822   1.729   1.792   1.847   1.933   1.762   1.700   1.733   1.634   1.684   1.696   1.796   1.974   1.874   1.836   1.923   2.050   2.089   2.156   2.240   2.383   2.211   2.079   2.086   2.062   1.945   1.878   1.801   1.773   1.704   1.876   1.832   1.819   1.895   1.976   2.159   2.015   2.093   2.192   2.190   2.140   2.078   1.938   1.987   1.890   1.961   2.105   2.062   2.071   1.955
   146.00    1.753   1.713   1.748   1.697   1.756   1.861   1.730   1.643   1.695   1.834   1.962   1.943   1.842   1.763   1.831   1.826   1.736   1.685   1.656   1.612   1.693   1.706   1.606   1.591   1.709   1.871   1.947   1.989   1.803   1.822   1.843   1.733   1.633   1.684   1.767   1.958   1.961   2.004   1.945   2.100   2.098   1.959   2.153   2.221   2.117   2.051   2.019   2.015   2.103   1.906   1.827   1.654   1.732   1.689   1.821   1.751   1.902   2.017   2.177   2.183   2.055   2.107   2.243   2.303   2.134   1.913   1.960   1.972   1.990   2.096   2.147   2.095   1.985
   141.00    1.600   1.647   1.758   1.880   1.920   1.904   1.810   1.717   1.845   1.891   1.876   1.868   1.731   1.859   1.926   1.945   1.774   1.703   1.721   1.642   1.699   1.629   1.616   1.672   1.766   1.950   2.086   2.025   2.091   1.958   1.929   1.805   1.885   1.781   1.966   1.921   1.911   1.981   2.099   2.117   2.169   2.138   2.074   2.066   2.049   1.956   2.008   2.052   2.136   1.890   1.761   1.703   1.671   1.749   1.707   1.915   1.873   2.068   2.186   2.283   2.170   2.195   2.326   2.228   2.136   2.034   2.003   2.007   2.081   2.115   2.171   2.118   2.004
   136.00    1.648   1.775   1.774   1.900   1.878   1.814   1.740   1.876   1.782   1.861   1.791   1.767   1.710   1.877   2.058   1.919   1.888   1.741   1.660   1.671   1.646   1.749   1.833   1.863   1.849   2.067   2.128   2.193   2.310   2.147   1.999   1.846   1.841   1.815   1.788   2.012   2.057   2.063   2.093   2.069   2.116   2.099   2.128   2.164   1.885   1.938   1.908   1.986   1.961   1.926   1.796   1.753   1.778   1.837   1.866   2.010   1.980   2.015   2.142   2.205   2.335   2.287   2.272   2.207   1.960   1.932   2.031   2.171   2.252   2.216   2.260   2.223   2.158
   131.00    1.729   1.827   1.924   2.028   1.939   1.990   1.865   1.878   1.763   1.787   1.886   1.886   1.825   1.834   1.937   1.981   1.845   1.815   1.771   1.635   1.725   1.783   1.889   1.952   1.867   2.015   1.950   2.183   2.232   2.246   2.082   2.000   1.966   1.843   1.829   1.940   2.035   1.964   1.998   1.947   2.024   2.056   2.139   1.989   1.954   1.873   1.906   1.981   1.856   1.876   1.787   1.740   1.935   1.996   2.033   2.082   2.177   2.183   2.261   2.213   2.276   2.401   2.333   2.207   2.060   2.194   2.140   2.177   2.262   2.178   2.268   2.250   2.143
   126.00    1.617   1.855   1.777   1.941   1.925   1.809   1.821   1.684   1.766   1.908   1.856   1.881   1.901   1.873   1.857   1.967   1.851   1.857   1.647   1.687   1.699   1.651   1.791   1.877   1.851   1.874   1.978   2.112   2.175   2.215   2.144   2.016   1.930   1.918   1.994   1.917   1.953   1.964   1.841   2.015   2.047   2.096   2.012   2.038   1.997   2.077   2.054   1.999   1.841   1.796   1.765   1.836   1.856   2.025   2.002   2.107   2.205   2.347   2.289   2.063   2.244   2.306   2.315   2.195   2.262   2.251   2.191   2.196   2.097   2.130   2.162   2.287   2.226
   121.00    1.714   1.905   1.806   1.786   1.842   1.837   1.834   1.802   1.892   1.972   1.937   1.935   1.770   1.821   1.884   1.859   1.848   1.905   1.763   1.665   1.677   1.724   1.840   1.887   1.837   1.807   1.853   2.005   2.159   2.250   2.137   2.124   2.044   1.945   1.851   1.892   1.870   1.865   1.842   1.986   1.993   1.942   1.891   1.955   2.031   2.029   1.958   1.848   1.709   1.710   1.721   1.783   1.831   2.036   1.993   2.145   2.203   2.273   2.197   2.155   2.226   2.268   2.240   2.231   2.274   2.317   2.322   2.126   2.060   2.148   2.106   2.103   2.118
   116.00    1.687   1.801   1.782   1.724   1.800   1.826   1.895   1.953   1.985   2.058   2.050   1.859   1.771   1.713   1.620   1.695   1.680   1.697   1.617   1.684   1.732   1.714   1.682   1.705   1.713   1.853   1.995   2.056   2.082   2.027   2.126   2.031   2.088   1.844   1.810   1.896   1.939   1.897   1.909   1.920   1.912   1.860   1.845   1.993   1.951   1.915   1.728   1.735   1.769   1.789   1.686   1.758   1.827   1.988   2.080   2.135   2.166   2.048   2.086   2.113   2.216   2.153   2.408   2.318   2.321   2.287   2.212   2.035   1.934   2.111   2.075   1.936   1.930
   111.00    1.624   1.679   1.766   1.784   1.840   1.835   1.811   1.822   1.883   1.841   1.974   1.865   1.728   1.600   1.517   1.604   1.555   1.790   1.695   1.728   1.660   1.609   1.701   1.719   1.674   1.805   1.986   1.958   1.953   1.854   1.956   1.982   1.906   1.965   1.972   1.990   1.874   1.968   1.940   1.842   1.799   1.826   1.839   1.868   1.810   1.713   1.772   1.733   1.840   1.829   1.805   1.692   1.876   2.004   2.020   2.005   2.114   2.117   2.092   2.154   2.220   2.200   2.431   2.366   2.259   2.174   2.071   1.966   2.082   2.052   2.126   1.976   2.014
   106.00    1.595   1.677   1.807   1.746   1.755   1.820   1.803   1.820   1.754   1.795   1.807   1.644   1.619   1.653   1.640   1.635   1.654   1.668   1.591   1.600   1.603   1.597   1.636   1.750   1.776   1.789   1.875   1.959   1.797   1.856   1.926   1.996   1.918   2.009   1.992   2.009   1.893   1.926   1.951   1.874   1.836   1.793   1.832   1.750   1.727   1.693   1.647   1.800   1.778   1.858   1.790   1.823   1.780   1.819   1.900   1.964   1.923   2.094   2.156   2.212   2.313   2.320   2.461   2.362   2.112   2.161   2.120   2.149   1.984   2.118   1.977   1.982   2.069
   101.00    1.631   1.600   1.716   1.788   1.821   1.678   1.746   1.672   1.745   1.781   1.830   1.733   1.587   1.587   1.634   1.707   1.708   1.689   1.694   1.627   1.700   1.530   1.615   1.754   1.818   1.868   1.849   1.883   1.865   1.895   1.886   1.897   1.893   1.965   1.967   1.910   1.738   1.790   1.925   1.670   1.612   1.648   1.629   1.674   1.611   1.667   1.658   1.716   1.738   1.813   1.918   1.886   1.849   1.806   1.866   1.834   1.973   2.105   2.121   2.152   2.225   2.220   2.358   2.376   2.143   2.015   2.051   2.081   1.950   1.976   2.034   1.930   1.944
    96.00    1.664   1.665   1.724   1.760   1.751   1.671   1.676   1.706   1.607   1.664   1.730   1.807   1.644   1.567   1.723   1.676   1.747   1.787   1.908   1.778   1.675   1.619   1.677   1.705   1.809   1.761   1.730   1.846   1.857   1.857   1.968   1.860   1.859   1.928   1.935   1.852   1.791   1.710   1.880   1.790   1.651   1.481   1.510   1.595   1.693   1.615   1.588   1.727   1.712   1.876   1.837   1.799   1.883   1.881   1.749   1.844   2.024   2.135   2.215   2.103   2.057   2.266   2.310   2.285   2.160   1.969   2.031   2.107   1.976   1.976   1.968   1.938   1.915
    91.00    1.634   1.645   1.682   1.774   1.695   1.687   1.781   1.694   1.707   1.716   1.714   1.774   1.762   1.694   1.774   1.771   1.743   1.747   1.829   1.847   1.671   1.692   1.734   1.793   1.742   1.765   1.859   1.772   1.743   1.905   1.945   2.003   1.992   2.040   1.921   1.840   1.671   1.687   1.773   1.790   1.586   1.498   1.597   1.586   1.737   1.725   1.645   1.784   1.759   1.883   1.853   1.735   1.655   1.733   1.762   1.861   2.032   2.204   2.141   2.151   2.196   2.317   2.195   2.106   2.070   1.897   1.913   2.070   2.051   2.002   1.877   1.898   1.829
    86.00    1.629   1.699   1.696   1.680   1.684   1.596   1.617   1.622   1.746   1.746   1.700   1.758   1.817   1.744   1.849   1.790   1.766   1.769   1.810   1.715   1.742   1.741   1.790   1.817   1.793   1.735   1.786   1.800   1.799   1.815   1.921   1.935   1.902   1.916   1.912   1.826   1.742   1.756   1.734   1.656   1.532   1.544   1.575   1.683   1.671   1.778   1.731   1.719   1.873   1.884   1.766   1.728   1.562   1.666   1.766   1.846   2.086   2.118   2.153   2.138   2.074   2.228   2.120   2.170   1.972   1.873   1.726   1.885   1.997   1.952   1.919   1.833   1.846
    81.00    1.680   1.676   1.708   1.610   1.669   1.614   1.635   1.591   1.710   1.771   1.766   1.859   1.923   1.791   1.768   1.686   1.749   1.740   1.749   1.735   1.716   1.735   1.796   1.925   1.869   1.755   1.783   1.864   1.913   1.887   1.899   1.873   1.918   1.892   1.809   1.819   1.764   1.744   1.660   1.601   1.608   1.655   1.667   1.803   1.808   1.798   1.849   1.847   1.882   1.770   1.859   1.801   1.718   1.655   1.749   1.990   2.151   2.041   2.130   2.200   2.078   2.191   2.117   2.178   2.049   1.898   1.820   1.865   2.066   2.023   1.935   1.781   1.837
    76.00    1.706   1.657   1.669   1.743   1.722   1.673   1.657   1.734   1.732   1.794   1.704   1.777   1.828   1.737   1.716   1.681   1.715   1.709   1.677   1.781   1.768   1.748   1.759   1.808   1.838   1.848   1.856   1.942   1.830   1.916   1.953   1.902   1.891   1.905   1.750   1.908   1.738   1.773   1.698   1.617   1.665   1.626   1.684   1.864   1.818   1.751   1.761   1.829   1.896   1.757   1.781   1.819   1.838   1.794   1.957   2.039   2.064   2.042   1.942   1.997   2.070   2.156   2.054   2.090   2.086   2.083   1.977   1.840   2.069   1.978   1.956   1.951   1.835
    71.00    1.769   1.834   1.818   1.795   1.660   1.675   1.678   1.770   1.722   1.698   1.699   1.789   1.794   1.783   1.716   1.689   1.686   1.748   1.744   1.790   1.855   1.786   1.921   1.943   1.836   1.923   1.843   1.851   1.839   1.833   1.918   1.878   1.868   1.744   1.755   1.733   1.744   1.718   1.651   1.630   1.658   1.711   1.775   1.842   1.682   1.725   1.678   1.719   1.735   1.857   1.741   1.677   1.788   1.760   1.827   2.038   2.018   2.143   2.172   2.003   2.059   2.056   2.177   2.123   2.192   2.066   2.075   2.049   2.102   2.098   2.096   1.989   1.768
    66.00    1.972   1.905   1.818   1.702   1.656   1.592   1.688   1.691   1.777   1.765   1.648   1.770   1.697   1.782   1.720   1.690   1.757   1.607   1.631   1.617   1.717   1.800   1.897   1.892   1.886   1.954   1.850   1.827   1.735   1.727   1.792   1.750   1.763   1.796   1.786   1.724   1.707   1.702   1.610   1.574   1.630   1.684   1.683   1.695   1.652   1.730   1.674   1.705   1.778   1.681   1.689   1.673   1.631   1.828   1.792   1.823   2.015   2.217   2.112   2.135   2.013   2.013   2.144   2.075   2.190   2.006   2.067   2.156   2.081   2.238   2.139   1.986   1.946
    61.00    1.867   1.902   1.855   1.808   1.604   1.641   1.819   1.805   1.813   1.757   1.693   1.745   1.680   1.718   1.624   1.624   1.639   1.630   1.676   1.705   1.730   1.776   1.803   1.813   1.875   1.882   1.855   1.732   1.693   1.791   1.733   1.731   1.684   1.840   1.824   1.826   1.808   1.784   1.700   1.726   1.647   1.684   1.644   1.618   1.699   1.707   1.703   1.751   1.714   1.676   1.674   1.633   1.572   1.641   1.654   1.696   1.920   2.094   2.194   2.011   2.030   1.959   2.020   2.009   2.026   2.046   2.041   2.142   2.247   2.213   2.163   2.093   1.895
    56.00    1.994   2.017   1.918   1.904   1.808   1.815   1.876   1.834   1.805   1.788   1.801   1.631   1.656   1.704   1.660   1.611   1.679   1.561   1.655   1.747   1.718   1.771   1.755   1.859   1.873   1.765   1.713   1.729   1.760   1.757   1.726   1.756   1.738   1.745   1.797   1.855   1.849   1.799   1.809   1.759   1.787   1.639   1.590   1.634   1.673   1.751   1.749   1.780   1.703   1.569   1.612   1.638   1.579   1.624   1.708   1.590   1.854   2.041   2.047   2.066   1.988   1.875   1.946   1.918   2.059   1.929   2.081   2.032   2.154   2.050   2.014   1.964   1.986
    51.00    1.979   1.974   1.909   1.803   1.763   1.871   1.956   1.838   1.739   1.755   1.676   1.637   1.803   1.690   1.758   1.722   1.726   1.659   1.680   1.720   1.700   1.784   1.873   1.757   1.702   1.723   1.728   1.671   1.693   1.706   1.677   1.710   1.782   1.816   1.863   1.912   1.863   1.856   1.834   1.765   1.719   1.690   1.672   1.664   1.712   1.785   1.783   1.832   1.727   1.640   1.666   1.644   1.673   1.664   1.686   1.749   1.907   1.999   1.979   1.938   1.954   1.939   2.013   1.993   2.077   2.067   2.007   2.139   2.196   2.074   1.921   1.963   1.847
[...]
   161.00    1.175   1.152   1.133   1.192   1.168   1.168   1.154   1.118   1.131   1.178   1.153   1.176   1.155   1.201   1.218   1.178   1.160   1.165   1.128   1.097   1.113   1.106   1.122   1.119   1.068   1.138   1.143   1.132   1.162   1.186   1.166   1.140   1.095   1.094   1.094   1.164   1.172   1.169   1.101   1.082   1.092   1.114   1.118   1.136   1.138   1.154   1.176   1.162   1.179   1.202   1.223   1.163   1.098   1.107   1.158   1.167   1.197   1.143   1.105   1.099   1.104   1.054   1.096   1.084   1.060   1.091   1.085   1.134   1.148   1.117   1.104   1.122   1.104
   156.00    1.219   1.219   1.182   1.196   1.207   1.219   1.165   1.162   1.143   1.171   1.153   1.158   1.197   1.185   1.173   1.191   1.163   1.147   1.094   1.132   1.135   1.074   1.088   1.087   1.097   1.102   1.103   1.097   1.141   1.153   1.149   1.137   1.142   1.126   1.083   1.138   1.170   1.131   1.104   1.094   1.106   1.098   1.138   1.140   1.154   1.204   1.213   1.164   1.174   1.211   1.239   1.191   1.177   1.160   1.131   1.140   1.135   1.144   1.135   1.084   1.076   1.096   1.119   1.062   1.038   1.088   1.095   1.127   1.137   1.139   1.095   1.067   1.115
   151.00    1.214   1.144   1.153   1.200   1.186   1.192   1.228   1.189   1.190   1.167   1.131   1.179   1.165   1.193   1.170   1.170   1.147   1.102   1.155   1.136   1.142   1.080   1.080   1.119   1.120   1.111   1.128   1.081   1.086   1.151   1.152   1.127   1.090   1.102   1.106   1.125   1.141   1.158   1.096   1.110   1.099   1.115   1.151   1.175   1.138   1.175   1.214   1.187   1.164   1.204   1.158   1.191   1.205   1.130   1.128   1.147   1.146   1.164   1.145   1.089   1.040   1.087   1.093   1.059   1.035   1.063   1.085   1.086   1.148   1.194   1.110   1.087   1.108
   146.00    1.139   1.168   1.166   1.203   1.209   1.157   1.149   1.213   1.222   1.151   1.170   1.168   1.190   1.182   1.148   1.155   1.108   1.119   1.151   1.174   1.171   1.130   1.131   1.181   1.147   1.156   1.148   1.095   1.136   1.144   1.134   1.102   1.105   1.137   1.153   1.109   1.171   1.144   1.077   1.130   1.099   1.101   1.116   1.140   1.135   1.180   1.193   1.194   1.174   1.176   1.163   1.173   1.208   1.191   1.145   1.121   1.160   1.149   1.118   1.069   1.066   1.081   1.081   1.044   1.053   1.050   1.071   1.121   1.210   1.226   1.230   1.184   1.096
   141.00    1.164   1.159   1.190   1.209   1.215   1.212   1.141   1.193   1.203   1.207   1.167   1.194   1.163   1.158   1.172   1.148   1.128   1.144   1.127   1.137   1.146   1.186   1.155   1.168   1.116   1.164   1.088   1.079   1.140   1.163   1.139   1.129   1.154   1.142   1.173   1.164   1.183   1.134   1.141   1.125   1.118   1.072   1.082   1.135   1.106   1.120   1.157   1.114   1.160   1.157   1.143   1.134   1.167   1.157   1.190   1.172   1.153   1.112   1.088   1.088   1.059   1.112   1.080   1.062   1.056   1.089   1.133   1.180   1.237   1.277   1.222   1.201   1.187
   136.00    1.204   1.167   1.216   1.185   1.218   1.190   1.199   1.178   1.176   1.175   1.169   1.185   1.155   1.167   1.231   1.194   1.181   1.171   1.163   1.164   1.179   1.147   1.133   1.196   1.139   1.149   1.098   1.089   1.142   1.136   1.122   1.106   1.118   1.146   1.132   1.187   1.190   1.142   1.112   1.121   1.136   1.104   1.127   1.147   1.165   1.158   1.126   1.130   1.140   1.099   1.148   1.162   1.191   1.133   1.141   1.174   1.175   1.167   1.117   1.096   1.075   1.101   1.128   1.075   1.073   1.118   1.156   1.192   1.227   1.253   1.261   1.200   1.190
   131.00    1.217   1.175   1.166   1.204   1.187   1.179   1.198   1.198   1.156   1.146   1.136   1.138   1.170   1.201   1.203   1.194   1.175   1.163   1.166   1.153   1.164   1.149   1.155   1.190   1.184   1.152   1.140   1.116   1.145   1.115   1.140   1.141   1.124   1.126   1.161   1.222   1.191   1.206   1.149   1.101   1.173   1.095   1.111   1.120   1.159   1.152   1.163   1.148   1.134   1.109   1.157   1.181   1.193   1.157   1.151   1.197   1.142   1.094   1.107   1.140   1.112   1.107   1.083   1.093   1.121   1.137   1.184   1.179   1.198   1.260   1.266   1.246   1.224
   126.00    1.201   1.242   1.219   1.163   1.147   1.142   1.153   1.181   1.201   1.200   1.203   1.132   1.167   1.143   1.173   1.201   1.158   1.146   1.146   1.133   1.118   1.142   1.151   1.179   1.188   1.143   1.118   1.149   1.129   1.129   1.112   1.126   1.107   1.099   1.159   1.170   1.144   1.155   1.137   1.105   1.187   1.170   1.161   1.125   1.146   1.183   1.157   1.138   1.171   1.168   1.168   1.157   1.162   1.152   1.177   1.177   1.137   1.149   1.144   1.132   1.103   1.090   1.088   1.117   1.129   1.118   1.182   1.204   1.215   1.253   1.212   1.231   1.261
   121.00    1.241   1.232   1.226   1.193   1.159   1.136   1.152   1.174   1.173   1.199   1.127   1.129   1.194   1.225   1.182   1.197   1.117   1.135   1.146   1.141   1.108   1.140   1.140   1.127   1.168   1.092   1.109   1.127   1.199   1.118   1.095   1.092   1.091   1.146   1.131   1.136   1.145   1.096   1.073   1.097   1.149   1.214   1.188   1.167   1.181   1.153   1.161   1.141   1.128   1.157   1.134   1.172   1.142   1.154   1.147   1.169   1.165   1.154   1.156   1.102   1.111   1.107   1.111   1.119   1.132   1.119   1.186   1.207   1.212   1.193   1.235   1.232   1.237
   116.00    1.220   1.204   1.252   1.229   1.196   1.137   1.171   1.188   1.186   1.185   1.135   1.133   1.140   1.225   1.222   1.177   1.128   1.114   1.162   1.139   1.112   1.119   1.123   1.079   1.112   1.109   1.189   1.136   1.118   1.090   1.118   1.074   1.112   1.085   1.064   1.081   1.077   1.118   1.094   1.099   1.147   1.194   1.184   1.205   1.169   1.185   1.175   1.174   1.130   1.116   1.143   1.159   1.188   1.182   1.183   1.156   1.152   1.132   1.119   1.094   1.086   1.109   1.109   1.110   1.112   1.120   1.174   1.201   1.159   1.186   1.208   1.176   1.201
   111.00    1.199   1.224   1.237   1.234   1.181   1.169   1.146   1.170   1.196   1.195   1.137   1.120   1.129   1.204   1.179   1.204   1.146   1.153   1.123   1.095   1.121   1.158   1.110   1.102   1.064   1.136   1.196   1.155   1.165   1.119   1.130   1.100   1.071   1.062   1.092   1.088   1.080   1.085   1.095   1.077   1.109   1.134   1.168   1.165   1.153   1.169   1.172   1.191   1.135   1.125   1.149   1.172   1.153   1.136   1.173   1.124   1.145   1.158   1.132   1.104   1.100   1.113   1.111   1.100   1.125   1.135   1.134   1.180   1.174   1.190   1.165   1.179   1.212
   106.00    1.210   1.218   1.211   1.164   1.183   1.165   1.174   1.152   1.160   1.164   1.144   1.142   1.163   1.178   1.169   1.157   1.117   1.070   1.071   1.072   1.149   1.196   1.118   1.074   1.097   1.091   1.126   1.193   1.106   1.162   1.144   1.134   1.095   1.106   1.122   1.087   1.103   1.082   1.070   1.083   1.086   1.095   1.140   1.149   1.167   1.158   1.133   1.136   1.128   1.124   1.184   1.160   1.155   1.162   1.139   1.136   1.137   1.180   1.157   1.156   1.143   1.135   1.127   1.107   1.114   1.137   1.173   1.186   1.201   1.178   1.165   1.160   1.202
   101.00    1.189   1.202   1.151   1.222   1.189   1.183   1.209   1.149   1.131   1.152   1.167   1.178   1.191   1.161   1.153   1.157   1.152   1.087   1.078   1.093   1.119   1.159   1.141   1.110   1.073   1.126   1.136   1.120   1.138   1.165   1.158   1.166   1.131   1.090   1.096   1.113   1.132   1.108   1.095   1.075   1.104   1.128   1.116   1.114   1.123   1.144   1.185   1.130   1.141   1.121   1.151   1.168   1.120   1.139   1.153   1.177   1.199   1.185   1.146   1.130   1.180   1.151   1.146   1.116   1.089   1.158   1.192   1.157   1.123   1.124   1.141   1.155   1.199
    96.00    1.185   1.160   1.130   1.164   1.221   1.192   1.165   1.139   1.163   1.158   1.162   1.197   1.185   1.206   1.212   1.175   1.132   1.086   1.101   1.099   1.113   1.093   1.119   1.085   1.094   1.117   1.127   1.159   1.142   1.152   1.179   1.139   1.132   1.092   1.098   1.099   1.086   1.112   1.083   1.101   1.101   1.072   1.071   1.066   1.079   1.109   1.139   1.103   1.112   1.150   1.115   1.088   1.117   1.085   1.109   1.171   1.193   1.157   1.107   1.130   1.177   1.132   1.122   1.107   1.138   1.177   1.176   1.167   1.133   1.116   1.156   1.121   1.116
    91.00    1.196   1.158   1.173   1.206   1.204   1.211   1.198   1.221   1.222   1.164   1.172   1.195   1.169   1.195   1.165   1.196   1.136   1.117   1.092   1.098   1.087   1.101   1.100   1.074   1.092   1.096   1.150   1.121   1.118   1.131   1.122   1.129   1.140   1.109   1.106   1.083   1.099   1.107   1.088   1.067   1.070   1.104   1.082   1.109   1.078   1.115   1.093   1.119   1.083   1.127   1.128   1.114   1.097   1.127   1.145   1.124   1.153   1.126   1.139   1.147   1.150   1.131   1.156   1.151   1.146   1.148   1.166   1.194   1.149   1.182   1.159   1.177   1.169
    86.00    1.147   1.198   1.198   1.169   1.243   1.236   1.203   1.200   1.202   1.180   1.186   1.187   1.224   1.173   1.179   1.184   1.121   1.132   1.116   1.079   1.097   1.134   1.083   1.057   1.078   1.076   1.079   1.089   1.141   1.146   1.120   1.126   1.120   1.106   1.140   1.189   1.185   1.108   1.121   1.104   1.089   1.128   1.130   1.121   1.136   1.116   1.101   1.047   1.048   1.081   1.095   1.110   1.130   1.141   1.152   1.131   1.163   1.128   1.135   1.114   1.116   1.150   1.152   1.135   1.186   1.193   1.179   1.198   1.156   1.182   1.174   1.187   1.158
    81.00    1.202   1.224   1.209   1.209   1.198   1.224   1.239   1.216   1.176   1.146   1.218   1.207   1.213   1.233   1.212   1.202   1.147   1.144   1.155   1.125   1.106   1.130   1.106   1.053   1.020   1.043   1.092   1.073   1.125   1.145   1.146   1.131   1.144   1.147   1.125   1.173   1.164   1.127   1.111   1.122   1.115   1.123   1.105   1.131   1.127   1.133   1.086   1.086   1.091   1.087   1.112   1.080   1.118   1.111   1.112   1.107   1.087   1.150   1.140   1.145   1.143   1.204   1.156   1.137   1.145   1.173   1.182   1.168   1.172   1.173   1.150   1.177   1.171
    76.00    1.203   1.222   1.226   1.202   1.219   1.238   1.228   1.182   1.182   1.174   1.221   1.204   1.257   1.201   1.219   1.229   1.152   1.148   1.149   1.124   1.107   1.127   1.095   1.060   1.045   1.087   1.092   1.099   1.116   1.139   1.164   1.175   1.135   1.169   1.137   1.149   1.164   1.105   1.092   1.090   1.139   1.105   1.125   1.123   1.109   1.123   1.084   1.122   1.133   1.086   1.146   1.135   1.141   1.107   1.086   1.094   1.072   1.106   1.119   1.123   1.153   1.128   1.172   1.135   1.104   1.168   1.140   1.210   1.183   1.122   1.126   1.154   1.146
    71.00    1.212   1.223   1.195   1.223   1.192   1.213   1.222   1.226   1.153   1.182   1.172   1.226   1.255   1.166   1.186   1.173   1.192   1.180   1.163   1.098   1.063   1.113   1.076   1.022   1.059   1.070   1.116   1.147   1.170   1.134   1.110   1.140   1.143   1.175   1.158   1.161   1.143   1.122   1.137   1.092   1.172   1.167   1.127   1.088   1.088   1.135   1.139   1.180   1.165   1.157   1.181   1.186   1.162   1.133   1.145   1.086   1.117   1.096   1.103   1.160   1.157   1.116   1.143   1.139   1.130   1.131   1.159   1.172   1.157   1.152   1.149   1.168   1.165
    66.00    1.210   1.193   1.193   1.182   1.141   1.186   1.222   1.209   1.212   1.230   1.202   1.218   1.259   1.198   1.177   1.157   1.150   1.144   1.118   1.058   1.068   1.046   1.050   1.086   1.095   1.119   1.141   1.152   1.191   1.111   1.115   1.091   1.116   1.141   1.136   1.148   1.175   1.161   1.132   1.162   1.199   1.207   1.175   1.160   1.107   1.180   1.166   1.171   1.150   1.177   1.206   1.225   1.135   1.147   1.154   1.166   1.150   1.129   1.136   1.139   1.173   1.100   1.178   1.178   1.108   1.139   1.166   1.178   1.205   1.158   1.141   1.148   1.188
    61.00    1.212   1.170   1.163   1.164   1.156   1.151   1.151   1.175   1.241   1.238   1.200   1.199   1.204   1.160   1.131   1.135   1.143   1.152   1.097   1.101   1.104   1.089   1.098   1.117   1.090   1.105   1.112   1.127   1.107   1.110   1.098   1.135   1.163   1.164   1.154   1.151   1.140   1.171   1.188   1.218   1.205   1.186   1.206   1.180   1.159   1.196   1.176   1.216   1.195   1.170   1.219   1.205   1.158   1.143   1.153   1.118   1.159   1.136   1.140   1.119   1.159   1.145   1.188   1.130   1.137   1.117   1.133   1.127   1.159   1.167   1.180   1.152   1.150
    56.00    1.183   1.164   1.135   1.166   1.149   1.148   1.145   1.151   1.157   1.211   1.177   1.209   1.153   1.144   1.131   1.138   1.126   1.145   1.128   1.161   1.104   1.085   1.088   1.095   1.071   1.091   1.098   1.106   1.084   1.087   1.101   1.088   1.122   1.124   1.150   1.162   1.230   1.195   1.213   1.180   1.173   1.155   1.169   1.144   1.128   1.168   1.193   1.163   1.149   1.183   1.187   1.138   1.166   1.177   1.160   1.128   1.099   1.154   1.149   1.183   1.135   1.124   1.142   1.111   1.111   1.168   1.135   1.127   1.156   1.204   1.179   1.185   1.180
    51.00    1.150   1.133   1.147   1.145   1.171   1.188   1.183   1.172   1.161   1.194   1.134   1.165   1.150   1.176   1.116   1.127   1.137   1.189   1.150   1.143   1.082   1.061   1.056   1.069   1.058   1.090   1.093   1.121   1.108   1.117   1.120   1.126   1.131   1.123   1.163   1.178   1.193   1.242   1.214   1.205   1.219   1.182   1.187   1.159   1.137   1.137   1.178   1.113   1.161   1.161   1.217   1.180   1.193   1.179   1.140   1.128   1.101   1.153   1.170   1.116   1.108   1.074   1.110   1.099   1.103   1.144   1.136   1.175   1.207   1.209   1.264   1.223   1.219
    46.00    1.166   1.118   1.164   1.155   1.158   1.130   1.195   1.214   1.190   1.137   1.168   1.147   1.132   1.139   1.124   1.119   1.126   1.148   1.114   1.136   1.106   1.100   1.087   1.111   1.082   1.086   1.145   1.141   1.145   1.106   1.150   1.150   1.152   1.133   1.134   1.175   1.173   1.162   1.184   1.183   1.172   1.177   1.168   1.149   1.152   1.156   1.169   1.167   1.105   1.167   1.178   1.179   1.153   1.131   1.126   1.121   1.140   1.105   1.098   1.131   1.117   1.100   1.128   1.127   1.141   1.119   1.172   1.170   1.245   1.303   1.277   1.214   1.166
    41.00    1.116   1.117   1.101   1.142   1.154   1.157   1.185   1.176   1.130   1.154   1.167   1.155   1.150   1.156   1.174   1.178   1.146   1.120   1.141   1.137   1.084   1.097   1.103   1.082   1.144   1.151   1.138   1.171   1.135   1.126   1.142   1.166   1.147   1.113   1.137   1.133   1.116   1.129   1.144   1.165   1.150   1.135   1.189   1.151   1.159   1.156   1.138   1.147   1.189   1.193   1.169   1.168   1.126   1.137   1.135   1.138   1.089   1.121   1.101   1.131   1.091   1.130   1.099   1.105   1.132   1.177   1.152   1.170   1.249   1.227   1.210   1.210   1.206
    36.00    1.140   1.145   1.163   1.146   1.168   1.198   1.196   1.130   1.152   1.164   1.153   1.152   1.158   1.160   1.171   1.161   1.120   1.129   1.154   1.129   1.090   1.122   1.164   1.139   1.143   1.120   1.134   1.123   1.123   1.124   1.138   1.128   1.126   1.135   1.136   1.140   1.133   1.133   1.130   1.148   1.167   1.166   1.182   1.204   1.153   1.199   1.187   1.175   1.178   1.192   1.191   1.129   1.188   1.152   1.165   1.171   1.129   1.101   1.087   1.136   1.105   1.151   1.117   1.077   1.144   1.173   1.177   1.215   1.270   1.231   1.225   1.175   1.166
    31.00    1.170   1.135   1.085   1.128   1.139   1.204   1.231   1.172   1.173   1.138   1.155   1.148   1.178   1.145   1.159   1.161   1.167   1.185   1.159   1.126   1.101   1.113   1.167   1.119   1.152   1.109   1.103   1.125   1.161   1.156   1.125   1.106   1.121   1.139   1.121   1.140   1.186   1.170   1.165   1.155   1.155   1.205   1.170   1.170   1.163   1.154   1.176   1.164   1.215   1.233   1.197   1.148   1.160   1.157   1.181   1.175   1.154   1.102   1.100   1.115   1.104   1.153   1.151   1.157   1.126   1.142   1.128   1.208   1.265   1.221   1.194   1.170   1.184
    26.00    1.169   1.135   1.104   1.158   1.182   1.202   1.198   1.134   1.166   1.149   1.157   1.155   1.171   1.126   1.127   1.127   1.155   1.129   1.145   1.155   1.100   1.124   1.130   1.140   1.125   1.085   1.076   1.073   1.140   1.166   1.136   1.109   1.141   1.168   1.156   1.143   1.172   1.165   1.158   1.161   1.181   1.136   1.160   1.196   1.150   1.161   1.185   1.156   1.159   1.156   1.175   1.157   1.126   1.146   1.178   1.162   1.177   1.130   1.167   1.149   1.143   1.105   1.131   1.099   1.110   1.165   1.161   1.145   1.167   1.224   1.181   1.218   1.192
    21.00    1.165   1.186   1.153   1.189   1.179   1.172   1.216   1.184   1.163   1.161   1.156   1.153   1.129   1.163   1.111   1.119   1.129   1.108   1.124   1.137   1.130   1.117   1.113   1.097   1.102   1.092   1.083   1.131   1.099   1.123   1.117   1.089   1.094   1.206   1.177   1.108   1.115   1.177   1.146   1.175   1.170   1.153   1.158   1.159   1.153   1.153   1.173   1.153   1.119   1.125   1.136   1.116   1.152   1.119   1.150   1.184   1.191   1.136   1.147   1.154   1.118   1.124   1.142   1.114   1.103   1.168   1.124   1.184   1.220   1.211   1.196   1.252   1.191
    16.00    1.191   1.171   1.166   1.185   1.208   1.178   1.168   1.166   1.132   1.143   1.125   1.166   1.096   1.088   1.134   1.124   1.110   1.092   1.140   1.132   1.109   1.153   1.123   1.102   1.143   1.126   1.113   1.073   1.118   1.109   1.099   1.148   1.153   1.166   1.208   1.102   1.111   1.158   1.111   1.183   1.138   1.099   1.145   1.203   1.161   1.157   1.169   1.136   1.133   1.108   1.111   1.139   1.155   1.133   1.201   1.173   1.165   1.121   1.089   1.077   1.087   1.121   1.113   1.109   1.134   1.171   1.130   1.162   1.176   1.207   1.227   1.198   1.119
    11.00    1.189   1.190   1.163   1.138   1.147   1.122   1.123   1.146   1.166   1.114   1.121   1.122   1.103   1.101   1.117   1.118   1.102   1.086   1.130   1.068   1.066   1.079   1.139   1.095   1.145   1.156   1.142   1.091   1.118   1.171   1.159   1.151   1.173   1.164   1.174   1.146   1.149   1.175   1.148   1.176   1.156   1.144   1.179   1.145   1.149   1.165   1.162   1.091   1.100   1.167   1.124   1.138   1.128   1.131   1.170   1.129   1.129   1.091   1.112   1.147   1.110   1.115   1.098   1.135   1.168   1.154   1.102   1.124   1.145   1.156   1.183   1.158   1.144
     6.00    1.161   1.157   1.102   1.156   1.133   1.107   1.143   1.127   1.097   1.086   1.115   1.139   1.116   1.138   1.090   1.098   1.107   1.107   1.126   1.059   1.095   1.120   1.129   1.099   1.066   1.126   1.173   1.125   1.112   1.133   1.139   1.137   1.154   1.125   1.131   1.145   1.156   1.201   1.183   1.156   1.214   1.181   1.144   1.198   1.157   1.193   1.190   1.113   1.126   1.183   1.195   1.159   1.161   1.116   1.133   1.153   1.147   1.119   1.165   1.135   1.143   1.106   1.093   1.112   1.121   1.124   1.118   1.155   1.190   1.137   1.184   1.193   1.136
     1.00    1.138   1.144   1.157   1.157   1.121   1.090   1.113   1.084   1.130   1.101   1.068   1.080   1.083   1.118   1.114   1.128   1.121   1.135   1.112   1.142   1.095   1.118   1.126   1.087   1.047   1.083   1.144   1.110   1.119   1.160   1.150   1.157   1.157   1.147   1.116   1.115   1.146   1.147   1.194   1.207   1.210   1.173   1.159   1.205   1.179   1.170   1.200   1.142   1.155   1.147   1.187   1.214   1.170   1.153   1.163   1.149   1.172   1.138   1.149   1.171   1.143   1.138   1.121   1.150   1.150   1.173   1.160   1.131   1.164   1.183   1.193   1.187   1.147

   Mean standard deviation across all grid points:
      u component:    2.089 m/s
      v component:    1.846 m/s
      w component:    1.145 m/s


U-component (X) statistics from the interpolated hub point:

   Mean =  11.6748 m/s
   TI   =  19.1523 %


Processing complete.  10991 CPU seconds used.
