
This summary file was generated by TurbSim (from OpenFAST-v3.3.0) on 09-Jan-2023 at 13:48:02.


Runtime Options:

         1  Random seed #1
         5  Random seed #2
         F  Output binary HH turbulence parameters?
         F  Output formatted turbulence parameters?
         F  Output AeroDyn HH files?
         T  Output AeroDyn FF files?
         F  Output BLADED FF files?
         F  Output tower data?
         F  Output HAWC FF files?
         F  Output formatted FF files?
         T  Output coherent turbulence time step file?
 0 -  NONE  IEC turbulence models scaled to exact specified standard deviation


Turbine/Model Specifications:

        61  Vertical grid-point matrix dimension
        73  Horizontal grid-point matrix dimension
     0.100  Time step [seconds]
   600.000  Analysis time [seconds]
   600.000  Usable output time [seconds]
   151.000  Hub height [m]
   300.000  Grid height [m]
   360.000  Grid width [m]
     0.000  Vertical flow angle [degrees]
     0.000  Horizontal flow angle [degrees]


Meteorological Boundary Conditions:

    TIMESR  User-input time series spectral model
       N/A  IEC standard
       N/A  IEC turbulence characteristic
       N/A  IEC turbulence type
       N/A  IEC Extreme Turbulence Model (ETM) "c" parameter [m/s]
       PL   Wind profile type
   119.000  Reference height [m]
    11.400  Reference wind speed [m/s]
       N/A  Jet height [m]
     0.100  Power law exponent
     0.030  Surface roughness length [m]


Non-IEC Meteorological Boundary Conditions:

    45.000  Site latitude [degrees]
     0.050  Gradient Richardson number
     0.529  Friction or shear velocity [m/s]
       N/A  Mixing layer depth [m]
       N/A  Mean hub u'w' Reynolds stress
       N/A  Mean hub u'v' Reynolds stress
       N/A  Mean hub v'w' Reynolds stress


Spatial Coherence Models:

       IEC  u-component coherence model
       IEC  v-component coherence model
       IEC  w-component coherence model
(   12.000, 0.659E-03)  u-component coherence parameters
(   12.000, 0.659E-03)  v-component coherence parameters
(   12.000, 0.659E-03)  w-component coherence parameters
       N/A  Coherence exponent


Coherent Turbulence Scaling Parameters:

.\EventData
            Name of the path containing the coherent turbulence data files
       dns  Type of coherent turbulence data files
     1.000  Disturbance scale (ratio of wave height to rotor diameter)
     0.500  Fractional location of tower centerline from right
     0.500  Fractional location of hub height from the bottom of the dataset
    30.000  Minimum start time for coherent structures [seconds]


Profiles from User-Defined Time-Series Input:

  Height   Wind Speed   Horizontal Angle   Vertical Angle
   (m)        (m/s)          (deg)              (deg)    
  ------   ----------   ----------------   --------------
  119.00      11.47          -0.00               -0.00


You have requested that the following file(s) be generated:

   HighT6.bts (AeroDyn/TurbSim full-field wind file)


Turbulence Simulation Scaling Parameter Summary:

   Turbulence model used                            =  User-input time series
   Gradient Richardson number                       =    0.050
   Monin-Obukhov (M-O) z/L parameter                =    0.067
   Monin-Obukhov (M-O) length scale                 = 2265.000 m
   Mean wind speed at hub height                    =   11.675 m/s

   Wind profile type                                =  Power law
   Power law exponent                               =    0.100
   Mean shear across rotor disk                     =    0.018 (m/s)/m
   Assumed rotor diameter                           =  300.000 m
   Surface roughness length                         =    0.030 m

   Nyquist frequency of turbulent wind field        =    5.000 Hz

   Number of time steps in the FFT                  =     6000
   Number of time steps output                      =     6000
   Number of points simulated                       =     4454


Mean Flow Angles:

   Vertical   =   0.0 degrees
   Horizontal =   0.0 degrees

Mean Wind Speed Profile:

   Height    Wind Speed   Horizontal Angle  Vertical Angle  U-comp (X)   V-comp (Y)   W-comp (Z)
     (m)        (m/s)         (degrees)       (degrees)       (m/s)        (m/s)        (m/s)   
   ------    ----------   ----------------  --------------  ----------   ----------   ----------
    301.0       12.51            0.00            0.00         12.51         0.00         0.00
    296.0       12.49            0.00            0.00         12.49         0.00         0.00
    291.0       12.47            0.00            0.00         12.47         0.00         0.00
    286.0       12.44            0.00            0.00         12.44         0.00         0.00
    281.0       12.42            0.00            0.00         12.42         0.00         0.00
    276.0       12.40            0.00            0.00         12.40         0.00         0.00
    271.0       12.38            0.00            0.00         12.38         0.00         0.00
    266.0       12.35            0.00            0.00         12.35         0.00         0.00
    261.0       12.33            0.00            0.00         12.33         0.00         0.00
    256.0       12.31            0.00            0.00         12.31         0.00         0.00
    251.0       12.28            0.00            0.00         12.28         0.00         0.00
    246.0       12.26            0.00            0.00         12.26         0.00         0.00
    241.0       12.23            0.00            0.00         12.23         0.00         0.00
    236.0       12.21            0.00            0.00         12.21         0.00         0.00
    231.0       12.18            0.00            0.00         12.18         0.00         0.00
    226.0       12.16            0.00            0.00         12.16         0.00         0.00
    221.0       12.13            0.00            0.00         12.13         0.00         0.00
    216.0       12.10            0.00            0.00         12.10         0.00         0.00
    211.0       12.07            0.00            0.00         12.07         0.00         0.00
    206.0       12.04            0.00            0.00         12.04         0.00         0.00
    201.0       12.01            0.00            0.00         12.01         0.00         0.00
    196.0       11.98            0.00            0.00         11.98         0.00         0.00
    191.0       11.95            0.00            0.00         11.95         0.00         0.00
    186.0       11.92            0.00            0.00         11.92         0.00         0.00
    181.0       11.89            0.00            0.00         11.89         0.00         0.00
    176.0       11.85            0.00            0.00         11.85         0.00         0.00
    171.0       11.82            0.00            0.00         11.82         0.00         0.00
    166.0       11.79            0.00            0.00         11.79         0.00         0.00
    161.0       11.75            0.00            0.00         11.75         0.00         0.00
    156.0       11.71            0.00            0.00         11.71         0.00         0.00
    151.0       11.67            0.00            0.00         11.67         0.00         0.00
    146.0       11.64            0.00            0.00         11.64         0.00         0.00
    141.0       11.60            0.00            0.00         11.60         0.00         0.00
    136.0       11.55            0.00            0.00         11.55         0.00         0.00
    131.0       11.51            0.00            0.00         11.51         0.00         0.00
    126.0       11.47            0.00            0.00         11.47         0.00         0.00
    121.0       11.42            0.00            0.00         11.42         0.00         0.00
    116.0       11.37            0.00            0.00         11.37         0.00         0.00
    111.0       11.32            0.00            0.00         11.32         0.00         0.00
    106.0       11.27            0.00            0.00         11.27         0.00         0.00
    101.0       11.21            0.00            0.00         11.21         0.00         0.00
     96.0       11.16            0.00            0.00         11.16         0.00         0.00
     91.0       11.10            0.00            0.00         11.10         0.00         0.00
     86.0       11.04            0.00            0.00         11.04         0.00         0.00
     81.0       10.97            0.00            0.00         10.97         0.00         0.00
     76.0       10.90            0.00            0.00         10.90         0.00         0.00
     71.0       10.83            0.00            0.00         10.83         0.00         0.00
     66.0       10.75            0.00            0.00         10.75         0.00         0.00
     61.0       10.66            0.00            0.00         10.66         0.00         0.00
     56.0       10.57            0.00            0.00         10.57         0.00         0.00
     51.0       10.47            0.00            0.00         10.47         0.00         0.00
     46.0       10.37            0.00            0.00         10.37         0.00         0.00
     41.0       10.25            0.00            0.00         10.25         0.00         0.00
     36.0       10.12            0.00            0.00         10.12         0.00         0.00
     31.0        9.97            0.00            0.00          9.97         0.00         0.00
     26.0        9.79            0.00            0.00          9.79         0.00         0.00
     21.0        9.58            0.00            0.00          9.58         0.00         0.00
     16.0        9.33            0.00            0.00          9.33         0.00         0.00
     11.0        8.98            0.00            0.00          8.98         0.00         0.00
      6.0        8.46            0.00            0.00          8.46         0.00         0.00
      1.0        7.07            0.00            0.00          7.07         0.00         0.00


Harvested Random Seeds after Generation of the Random Numbers:

   2107445636 Harvested seed # 1
   1197423433 Harvested seed # 2


Hub-Height Simulated Turbulence Statistical Summary:

   Type of Wind        Min (m/s)   Mean (m/s)    Max (m/s)  Sigma (m/s)       TI (%)
   ----------------    ---------   ----------    ---------  -----------       ------
   Longitudinal (u)         4.80        11.67        21.08        2.440       20.904
   Lateral (v)             -5.98        -0.00         5.84        1.862       15.946
   Vertical (w)            -4.53         0.00         4.22        1.261       10.805
   U component              4.80        11.67        21.08        2.440       20.904
   V component             -5.98        -0.00         5.84        1.862       15.946
   W component             -4.53         0.00         4.22        1.261       10.805
   Horizontal (U&V)         4.80        11.83        21.18        2.423       20.486
   Total                    5.13        11.90        21.18        2.406       20.221

                       Min Reynolds     Mean Reynolds    Max Reynolds    Correlation
   Product             Stress (m/s)^2   Stress (m/s)^2   Stress (m/s)^2  Coefficient
   ----------------    --------------   --------------   --------------  -----------
   u'w'                    -15.501             0.208            16.279         0.068
   u'v'                    -20.545            -0.089            34.734        -0.020
   v'w'                     -9.249             0.265            14.296         0.113


   Friction Velocity (Ustar)  =      0.456 m/s
   Maximum Instantaneous TKE  =     47.973 (m/s)^2
   Maximum Instantaneous CTKE =     17.483 (m/s)^2


Grid Point Variance Summary:

   Y-coord -180.00 -175.00 -170.00 -165.00 -160.00 -155.00 -150.00 -145.00 -140.00 -135.00 -130.00 -125.00 -120.00 -115.00 -110.00 -105.00 -100.00  -95.00  -90.00  -85.00  -80.00  -75.00  -70.00  -65.00  -60.00  -55.00  -50.00  -45.00  -40.00  -35.00  -30.00  -25.00  -20.00  -15.00  -10.00   -5.00    0.00    5.00   10.00   15.00   20.00   25.00   30.00   35.00   40.00   45.00   50.00   55.00   60.00   65.00   70.00   75.00   80.00   85.00   90.00   95.00  100.00  105.00  110.00  115.00  120.00  125.00  130.00  135.00  140.00  145.00  150.00  155.00  160.00  165.00  170.00  175.00  180.00

   Height   Standard deviation at grid points for the u component:
   301.00    2.201   2.127   2.318   2.416   2.229   2.137   1.978   2.172   2.183   2.102   2.097   2.017   2.006   2.041   2.115   2.255   2.249   2.264   2.153   2.138   2.105   2.206   2.228   2.172   2.375   2.351   2.572   2.551   2.463   2.453   2.355   2.186   2.278   2.484   2.497   2.390   2.394   2.334   2.224   2.362   2.319   2.368   2.400   2.329   2.172   2.305   2.396   2.424   2.575   2.278   2.388   2.177   2.267   2.490   2.362   2.222   2.211   2.408   2.195   2.056   2.036   2.061   2.228   2.364   2.314   2.391   2.436   2.310   2.169   2.116   1.918   2.070   2.065
   296.00    2.211   2.203   2.279   2.346   2.294   2.191   2.140   2.252   2.310   2.116   2.142   2.184   2.005   2.084   2.147   2.233   2.325   2.283   2.376   2.280   2.367   2.311   2.279   2.213   2.319   2.479   2.386   2.281   2.396   2.359   2.500   2.455   2.397   2.393   2.555   2.513   2.435   2.405   2.383   2.362   2.214   2.296   2.316   2.331   2.380   2.451   2.460   2.346   2.499   2.355   2.514   2.386   2.325   2.327   2.103   2.089   2.285   2.254   2.037   2.085   2.201   2.259   2.258   2.300   2.388   2.406   2.146   2.131   2.066   2.113   2.145   2.084   2.134
   291.00    2.056   2.122   2.258   2.262   2.218   2.234   2.106   2.132   2.203   2.223   2.284   2.156   2.097   2.128   2.252   2.193   2.301   2.232   2.280   2.453   2.425   2.147   2.014   2.110   2.361   2.226   2.142   2.249   2.210   2.311   2.387   2.410   2.402   2.518   2.536   2.607   2.479   2.285   2.313   2.176   2.148   2.267   2.322   2.171   2.305   2.323   2.356   2.523   2.276   2.350   2.427   2.507   2.459   2.363   2.435   2.159   2.122   2.283   2.164   2.015   2.040   1.990   2.090   2.231   2.310   2.130   2.113   2.104   2.124   2.090   2.049   2.061   2.117
   286.00    2.050   2.053   2.171   2.263   2.161   2.168   2.106   1.981   2.146   2.081   2.040   2.041   2.040   2.131   2.366   2.268   2.272   2.169   2.315   2.389   2.290   2.046   1.934   2.180   2.300   2.396   2.300   2.163   2.097   2.224   2.336   2.625   2.584   2.611   2.523   2.564   2.321   2.274   2.192   2.145   2.104   2.143   2.275   2.157   2.181   2.220   2.079   2.273   2.333   2.476   2.470   2.423   2.315   2.129   2.351   2.525   2.400   2.239   2.287   2.086   2.192   2.085   2.098   2.133   2.197   2.065   2.106   2.149   1.862   1.964   1.849   1.872   1.966
   281.00    2.196   2.177   2.108   2.115   2.088   2.174   2.193   2.031   2.107   2.061   2.169   1.992   1.967   1.980   2.111   2.176   2.169   2.239   2.346   2.470   2.304   2.181   2.110   2.307   2.360   2.342   2.191   2.263   2.280   2.228   2.456   2.534   2.726   2.490   2.504   2.545   2.323   2.356   2.275   2.284   2.169   2.190   2.123   2.217   2.063   2.143   2.013   2.109   2.203   2.143   2.301   2.201   2.151   2.003   2.326   2.316   2.425   2.222   2.338   2.136   2.062   2.105   2.116   1.997   2.004   1.971   2.014   1.992   1.906   1.850   1.917   1.781   1.844
   276.00    2.056   2.111   2.000   1.959   1.956   2.015   2.092   2.070   2.090   2.054   1.977   1.896   1.957   2.023   1.986   2.004   2.216   2.283   2.279   2.273   2.237   2.293   2.306   2.287   2.173   2.137   2.219   2.378   2.256   2.369   2.369   2.535   2.637   2.639   2.481   2.271   2.386   2.335   2.169   2.198   1.949   1.983   2.122   2.118   1.929   1.924   2.015   2.020   2.219   2.137   2.020   1.957   2.140   2.097   2.204   2.286   2.464   2.419   2.382   2.202   2.111   1.959   2.010   1.844   1.780   1.872   1.876   1.742   1.903   1.739   1.807   1.828   1.858
   271.00    1.884   2.019   2.033   2.047   1.941   2.027   2.008   1.971   2.028   2.123   1.973   2.008   2.053   1.937   1.923   2.079   2.203   2.317   2.081   2.171   2.210   2.305   2.153   2.265   2.192   2.289   2.283   2.417   2.500   2.416   2.365   2.292   2.434   2.384   2.357   2.211   2.299   2.350   2.003   1.926   2.079   1.858   2.135   2.252   2.018   2.089   2.136   2.146   2.184   2.021   1.962   2.036   2.118   2.166   2.077   2.311   2.328   2.304   2.187   2.135   2.076   2.030   1.818   1.849   1.790   1.797   1.737   1.808   1.756   1.822   1.805   1.743   1.711
   266.00    1.936   2.031   1.998   2.088   2.088   2.001   1.967   2.045   2.211   2.350   2.265   2.108   1.972   1.944   1.905   1.936   2.042   2.005   1.940   2.093   2.137   2.146   2.291   2.319   2.312   2.368   2.418   2.500   2.611   2.397   2.454   2.204   2.111   2.197   2.228   2.235   2.154   2.029   1.959   2.062   2.022   2.081   2.143   2.226   2.058   2.122   2.124   2.040   2.135   2.050   2.014   1.916   2.057   2.275   2.245   2.165   2.227   2.235   2.022   1.943   1.762   1.774   1.681   1.755   1.819   1.932   1.841   1.722   1.736   1.778   1.734   1.703   1.683
   261.00    1.778   1.932   2.030   2.063   2.064   2.050   2.049   2.235   2.286   2.448   2.367   2.151   1.899   1.828   1.721   1.826   2.009   1.996   1.991   2.088   2.147   2.102   2.054   2.254   2.189   2.379   2.462   2.558   2.467   2.504   2.445   2.282   2.301   2.358   2.318   2.187   1.912   2.012   1.947   2.136   1.975   2.131   2.137   2.426   2.256   2.196   2.250   2.105   2.145   2.242   2.215   2.126   2.149   2.193   2.090   2.186   2.062   2.079   2.054   1.838   1.777   1.690   1.661   1.760   1.868   1.954   1.900   1.900   1.726   1.727   1.740   1.659   1.721
   256.00    1.795   1.867   1.923   1.980   2.087   2.223   2.136   2.201   2.236   2.136   2.044   2.237   2.101   1.901   1.876   1.852   1.934   1.998   1.939   1.975   2.091   2.138   2.208   2.228   2.179   2.404   2.381   2.504   2.452   2.649   2.459   2.221   2.250   2.232   2.223   2.185   2.154   2.124   2.068   2.200   2.092   2.158   2.270   2.326   2.284   2.363   2.098   2.081   1.950   2.095   2.222   2.093   1.973   2.219   2.260   2.307   2.093   1.990   1.977   1.726   1.667   1.671   1.620   1.684   1.853   1.847   1.862   1.980   1.794   1.758   1.754   1.746   1.878
   251.00    1.919   2.159   1.913   1.833   1.812   2.173   2.297   2.329   2.253   2.113   2.174   2.119   2.064   2.106   2.070   2.124   1.959   2.075   1.944   1.860   2.061   2.116   2.277   2.308   2.400   2.505   2.491   2.542   2.482   2.524   2.471   2.376   2.200   2.360   2.200   2.227   2.152   2.242   2.158   2.091   2.173   2.128   2.207   2.233   2.150   2.254   2.220   2.094   2.043   2.100   2.177   2.003   2.188   2.219   2.289   2.261   2.114   1.926   1.898   1.944   1.730   1.609   1.684   1.940   1.746   1.901   1.878   1.742   1.893   1.744   1.740   1.730   1.793
   246.00    2.003   2.254   2.081   1.939   2.017   2.203   2.221   2.293   2.264   2.225   2.097   2.199   2.114   2.088   1.996   2.031   2.071   2.292   2.161   2.094   2.090   2.136   2.308   2.370   2.354   2.404   2.340   2.379   2.442   2.436   2.402   2.243   2.249   2.313   2.212   2.169   2.210   2.078   2.165   2.163   2.197   2.145   2.048   2.254   2.220   2.328   2.220   2.188   2.046   2.021   2.220   2.414   2.222   2.204   2.168   2.159   2.138   2.093   2.008   1.930   1.844   1.804   1.858   1.920   1.833   1.881   1.830   1.880   1.757   1.663   1.669   1.713   1.686
   241.00    2.000   2.141   2.118   2.179   2.119   2.312   2.219   2.303   2.285   2.251   2.234   2.214   2.261   2.248   2.044   1.998   2.205   2.211   2.253   2.087   2.066   2.247   2.252   2.229   2.207   2.361   2.234   2.366   2.193   2.296   2.131   2.109   2.302   2.302   2.260   2.176   2.112   2.270   2.339   2.178   2.110   2.003   2.226   2.155   2.160   2.123   2.201   2.245   2.123   2.135   2.317   2.417   2.485   2.276   2.170   2.185   2.034   2.116   2.144   1.898   1.845   1.898   1.988   1.900   1.936   1.893   1.875   1.954   1.877   1.869   1.676   1.674   1.785
   236.00    2.103   2.087   2.098   2.229   2.147   2.277   2.371   2.329   2.361   2.226   2.284   2.183   2.174   2.181   2.187   2.152   2.323   2.351   2.355   2.290   2.244   2.119   2.068   1.991   1.937   2.147   2.240   2.310   2.198   2.223   2.167   2.042   2.179   2.163   2.026   2.099   2.121   2.319   2.429   2.303   2.199   2.104   2.088   2.330   2.105   2.232   2.208   2.124   2.201   2.104   2.118   2.249   2.275   2.309   2.258   2.051   1.991   1.938   2.098   2.004   1.801   1.927   1.940   1.960   1.827   1.857   1.799   1.796   2.076   2.033   1.937   1.935   1.737
   231.00    2.117   2.171   2.200   2.277   2.313   2.089   2.215   2.441   2.426   2.203   2.114   2.087   2.316   2.071   2.171   2.077   2.289   2.475   2.402   2.330   2.241   2.258   2.058   2.138   2.093   2.149   2.241   2.124   2.206   2.166   2.205   2.120   2.230   2.126   2.052   2.156   2.286   2.452   2.445   2.519   2.306   2.141   2.099   2.279   2.283   2.183   2.172   2.078   2.252   2.095   2.062   2.041   2.158   2.215   2.111   2.057   1.914   1.955   1.996   2.099   1.910   1.921   2.012   2.004   1.934   1.794   1.996   2.037   2.144   2.142   2.083   1.955   1.846
   226.00    2.213   2.389   2.384   2.352   2.443   2.115   2.337   2.476   2.329   2.236   2.289   2.208   2.242   2.258   2.061   2.162   2.170   2.337   2.445   2.322   2.289   2.218   2.144   2.146   2.219   2.115   2.132   2.237   2.231   2.285   2.330   2.164   2.129   2.106   2.179   2.260   2.228   2.468   2.307   2.368   2.379   2.376   2.154   2.259   2.247   2.192   2.254   2.259   2.258   2.149   2.072   2.011   2.082   1.912   1.885   1.948   1.929   1.848   1.869   2.012   2.041   2.122   1.991   2.034   2.064   1.914   2.124   2.028   2.055   2.109   2.147   2.007   1.846
   221.00    2.265   2.428   2.428   2.445   2.346   2.254   2.277   2.360   2.404   2.303   2.408   2.424   2.397   2.288   2.329   2.365   2.349   2.372   2.227   2.253   2.421   2.306   2.147   2.259   2.231   2.062   2.054   2.323   2.373   2.398   2.213   2.200   2.414   2.220   2.276   2.204   2.140   2.310   2.383   2.487   2.364   2.296   2.297   2.290   2.370   2.222   2.318   2.282   2.221   2.149   2.244   2.084   1.863   1.841   1.874   1.935   1.997   2.027   1.967   2.011   2.132   2.112   1.979   1.889   1.928   1.916   1.947   2.085   2.084   2.028   2.184   1.998   1.962
   216.00    2.287   2.370   2.386   2.400   2.182   2.306   2.158   2.454   2.556   2.540   2.505   2.500   2.396   2.458   2.581   2.511   2.443   2.306   2.484   2.431   2.364   2.371   2.354   2.222   2.138   2.142   2.170   2.166   2.078   2.221   2.308   2.255   2.524   2.364   2.237   2.301   2.218   2.381   2.337   2.396   2.365   2.253   2.310   2.409   2.325   2.357   2.294   2.189   2.307   2.293   2.315   2.310   1.959   1.927   2.023   1.837   1.953   2.036   1.977   2.050   2.074   2.087   1.871   1.979   2.068   1.988   1.939   2.106   2.106   2.134   2.078   2.075   1.918
   211.00    2.179   2.070   2.455   2.413   2.346   2.322   2.346   2.398   2.554   2.445   2.373   2.390   2.377   2.302   2.578   2.466   2.359   2.175   2.280   2.313   2.349   2.406   2.329   2.255   2.239   2.295   2.199   2.134   2.024   2.131   2.190   2.271   2.298   2.327   2.422   2.279   2.411   2.348   2.383   2.482   2.356   2.232   2.227   2.207   2.246   2.169   2.214   2.035   2.206   2.349   2.345   2.146   2.172   2.137   2.100   2.239   2.114   2.143   1.946   1.931   1.902   1.928   1.798   1.939   2.014   2.020   2.025   2.162   2.115   2.080   2.162   1.970   1.907
   206.00    2.138   2.194   2.366   2.372   2.349   2.405   2.519   2.523   2.545   2.469   2.357   2.390   2.329   2.367   2.431   2.372   2.307   2.276   2.268   2.199   2.387   2.381   2.432   2.326   2.362   2.437   2.274   2.344   2.135   2.084   2.046   2.158   2.230   2.233   2.328   2.425   2.378   2.447   2.389   2.204   2.189   2.165   2.126   2.188   2.210   2.163   2.150   2.119   2.159   2.292   2.288   2.439   2.316   2.229   2.317   2.300   2.139   2.077   1.876   1.843   1.741   1.884   1.849   1.892   2.094   2.142   2.052   2.159   2.231   2.202   2.248   2.133   1.959
   201.00    2.256   2.340   2.510   2.387   2.301   2.143   2.390   2.535   2.485   2.453   2.414   2.388   2.456   2.427   2.362   2.260   2.246   2.199   2.269   2.214   2.384   2.475   2.353   2.325   2.357   2.530   2.289   2.130   2.172   2.163   2.148   2.185   2.318   2.139   2.277   2.293   2.301   2.270   2.288   2.189   2.246   2.187   2.108   2.238   2.237   2.117   2.192   2.135   2.066   2.168   2.327   2.441   2.422   2.293   2.359   2.224   2.118   2.198   2.140   2.036   1.931   1.883   1.842   2.054   2.173   2.109   2.248   2.272   2.321   2.290   2.315   2.435   2.174
   196.00    2.366   2.400   2.290   2.306   2.292   2.187   2.298   2.398   2.660   2.557   2.668   2.551   2.614   2.673   2.507   2.381   2.144   2.259   2.256   2.372   2.398   2.585   2.435   2.364   2.443   2.399   2.502   2.372   2.219   2.288   2.286   2.192   2.233   2.398   2.263   2.163   2.282   2.430   2.312   2.269   2.205   2.263   2.420   2.303   2.085   2.065   2.071   2.225   2.250   2.190   2.218   2.369   2.463   2.421   2.419   2.250   2.216   2.199   2.078   2.094   2.277   2.240   2.013   2.172   2.246   2.255   2.346   2.281   2.373   2.277   2.313   2.490   2.265
   191.00    2.401   2.428   2.407   2.450   2.375   2.249   2.193   2.376   2.389   2.593   2.650   2.802   2.710   2.717   2.478   2.380   2.267   2.237   2.379   2.676   2.542   2.632   2.436   2.310   2.351   2.505   2.468   2.255   2.298   2.425   2.326   2.359   2.307   2.327   2.107   2.175   2.286   2.292   2.311   2.359   2.076   2.190   2.164   2.306   2.157   2.125   2.036   2.113   2.085   2.240   2.260   2.305   2.263   2.294   2.399   2.206   2.158   2.256   2.256   2.255   2.308   2.078   1.931   2.168   2.217   2.141   2.185   2.322   2.265   2.362   2.451   2.405   2.294
   186.00    2.279   2.350   2.445   2.457   2.459   2.444   2.320   2.176   2.232   2.468   2.587   2.615   2.531   2.507   2.422   2.425   2.221   2.316   2.348   2.547   2.615   2.515   2.625   2.434   2.434   2.435   2.324   2.409   2.298   2.432   2.530   2.332   2.309   2.124   2.097   2.187   2.176   2.178   2.211   2.179   2.202   2.108   1.921   2.042   2.055   1.948   1.994   2.008   2.143   2.123   2.318   2.405   2.230   2.231   2.197   2.148   2.173   2.202   2.290   2.230   2.271   2.146   2.025   2.109   2.058   2.107   2.294   2.113   2.204   2.063   2.223   2.348   2.257
   181.00    2.053   2.262   2.322   2.298   2.145   2.329   2.256   2.260   2.185   2.413   2.305   2.404   2.571   2.410   2.292   2.386   2.189   2.399   2.413   2.362   2.589   2.590   2.380   2.348   2.334   2.351   2.451   2.453   2.407   2.568   2.462   2.308   2.048   2.150   2.212   2.277   2.148   2.108   2.201   2.120   2.299   2.093   2.021   1.993   1.949   1.820   1.927   1.999   2.047   2.063   2.107   2.136   2.248   2.270   2.096   2.156   2.199   2.316   2.330   2.353   2.348   2.171   1.950   2.021   2.044   2.153   2.232   2.251   2.038   2.238   2.385   2.494   2.382
   176.00    2.105   2.153   2.232   2.047   2.253   2.379   2.365   2.362   2.226   2.196   2.318   2.305   2.397   2.346   2.390   2.325   2.310   2.466   2.448   2.439   2.502   2.453   2.185   2.211   2.331   2.304   2.440   2.602   2.469   2.583   2.366   2.419   2.168   2.194   2.172   2.180   2.299   2.278   2.349   2.055   2.138   2.057   2.137   2.032   1.985   1.758   1.718   1.813   2.023   2.122   2.119   2.177   2.254   2.172   2.139   2.108   2.191   2.179   2.131   2.105   2.251   2.087   1.958   2.097   2.004   2.147   2.366   2.225   2.320   2.198   2.371   2.519   2.560
   171.00    2.207   2.245   2.197   1.998   2.004   2.131   2.148   2.448   2.554   2.252   2.308   2.166   2.296   2.446   2.443   2.415   2.476   2.489   2.437   2.414   2.348   2.144   2.197   2.273   2.285   2.200   2.365   2.503   2.643   2.502   2.356   2.677   2.276   2.282   2.194   2.198   2.182   2.379   2.315   2.138   2.047   2.053   2.115   1.943   1.944   1.896   1.789   1.887   1.875   1.907   2.004   2.134   2.274   2.323   2.220   2.206   2.224   2.261   2.286   2.267   2.184   2.059   2.162   2.025   1.994   2.134   2.256   2.275   2.240   2.443   2.398   2.650   2.638
   166.00    2.175   2.102   2.170   2.068   2.125   2.050   2.235   2.599   2.499   2.308   2.215   2.359   2.340   2.386   2.456   2.257   2.403   2.437   2.402   2.442   2.487   2.200   2.148   2.004   2.308   2.183   2.315   2.496   2.633   2.506   2.515   2.537   2.505   2.381   2.556   2.399   2.430   2.365   2.337   2.317   2.080   2.103   2.194   2.204   2.092   1.930   1.921   1.873   1.812   1.739   1.907   2.026   2.007   2.312   2.391   2.181   2.208   2.307   2.523   2.170   1.941   1.976   2.088   2.172   2.134   2.146   1.864   2.059   2.040   2.415   2.363   2.479   2.432
   161.00    1.992   2.145   2.149   2.253   2.169   2.272   2.470   2.408   2.584   2.363   2.342   2.239   2.409   2.423   2.267   2.307   2.520   2.452   2.534   2.476   2.451   2.376   2.147   2.133   2.328   2.247   2.280   2.406   2.435   2.608   2.553   2.626   2.530   2.511   2.538   2.514   2.351   2.359   2.422   2.414   2.218   2.111   2.190   2.132   2.047   2.060   1.986   1.868   1.854   1.838   1.943   2.003   2.010   2.156   2.230   2.254   2.307   2.421   2.481   2.136   1.925   1.911   1.881   2.031   2.016   1.848   1.860   2.003   2.194   2.286   2.374   2.343   2.251
   156.00    2.044   2.037   2.075   2.256   2.370   2.199   2.366   2.391   2.422   2.551   2.536   2.219   2.245   2.350   2.387   2.477   2.456   2.625   2.619   2.382   2.317   2.213   1.982   2.108   2.274   2.305   2.282   2.416   2.341   2.605   2.672   2.667   2.498   2.361   2.499   2.486   2.474   2.248   2.440   2.372   2.280   2.053   1.999   1.975   1.913   2.055   2.139   2.094   2.079   2.057   1.886   1.919   1.903   2.082   2.147   2.343   2.340   2.262   2.383   2.230   1.965   1.948   1.873   1.997   1.990   1.995   1.808   1.927   2.265   2.286   2.179   2.361   2.358
   151.00    2.040   2.269   2.309   2.248   2.351   2.276   2.356   2.548   2.537   2.520   2.429   2.093   2.279   2.208   2.381   2.397   2.450   2.470   2.484   2.168   2.147   2.170   1.986   2.058   2.170   2.372   2.347   2.310   2.381   2.444   2.510   2.502   2.350   2.516   2.606   2.467   2.440   2.399   2.459   2.373   2.230   1.899   1.879   1.985   1.949   2.127   2.168   2.079   2.055   2.122   2.037   1.999   1.903   1.941   2.146   2.207   2.240   2.345   2.254   2.069   1.831   1.877   2.009   2.112   2.095   2.075   2.003   1.998   2.078   2.329   2.352   2.306   2.222
   146.00    2.105   2.190   2.315   2.332   2.232   2.403   2.510   2.490   2.499   2.455   2.398   2.289   2.298   2.285   2.440   2.578   2.453   2.340   2.262   2.236   2.339   2.147   2.219   1.958   2.204   2.310   2.265   2.353   2.516   2.433   2.438   2.383   2.428   2.456   2.469   2.474   2.317   2.376   2.412   2.328   2.137   2.110   1.927   1.869   1.937   1.985   2.015   1.942   1.970   2.166   2.244   2.121   2.114   1.828   1.972   2.192   2.145   2.254   2.341   1.965   1.768   1.883   2.001   2.076   2.099   2.017   2.076   1.898   2.192   2.054   2.043   1.980   2.048
   141.00    2.282   2.320   2.360   2.343   2.362   2.526   2.410   2.613   2.431   2.449   2.375   2.462   2.300   2.355   2.303   2.306   2.434   2.201   2.430   2.490   2.241   2.290   2.230   2.252   2.264   2.239   2.184   2.197   2.351   2.369   2.583   2.520   2.427   2.386   2.397   2.328   2.263   2.225   2.293   2.322   2.390   2.150   2.116   1.990   2.027   2.058   1.915   1.802   1.950   2.114   2.317   2.169   2.132   1.876   1.947   2.199   2.184   2.227   2.268   2.064   1.766   1.856   2.044   2.028   2.012   1.986   1.997   2.013   2.058   1.991   1.940   1.968   2.127
   136.00    2.312   2.397   2.227   2.372   2.548   2.474   2.520   2.456   2.485   2.449   2.436   2.484   2.336   2.191   2.126   2.076   2.211   2.440   2.317   2.387   2.264   2.170   2.282   2.338   2.323   2.317   2.243   2.357   2.301   2.228   2.421   2.510   2.555   2.430   2.278   2.316   2.241   2.310   2.347   2.367   2.307   2.193   2.109   2.122   2.074   1.840   1.838   1.867   1.990   2.053   2.312   2.376   2.315   2.249   2.079   2.023   2.182   2.215   2.074   1.955   1.803   1.930   1.996   2.113   2.199   2.009   1.904   1.838   1.913   1.997   2.044   1.973   2.053
   131.00    2.178   2.281   2.448   2.385   2.269   2.365   2.558   2.592   2.498   2.325   2.418   2.477   2.366   2.192   2.129   2.179   2.272   2.196   2.359   2.342   2.241   2.295   2.455   2.381   2.270   2.287   2.168   2.286   2.371   2.495   2.545   2.374   2.252   2.177   2.136   2.195   2.236   2.283   2.184   2.188   2.153   2.158   2.153   2.063   2.042   1.969   1.842   1.786   1.923   1.984   2.222   2.265   2.252   2.119   2.127   2.187   2.108   2.145   1.992   1.964   1.943   2.016   1.952   1.897   1.962   1.884   1.786   2.016   1.878   1.995   2.152   2.244   2.225
   126.00    2.233   2.311   2.234   2.315   2.165   2.229   2.449   2.742   2.585   2.436   2.378   2.362   2.444   2.164   2.142   2.062   2.275   2.043   2.151   2.179   2.208   2.330   2.506   2.495   2.256   2.211   2.280   2.245   2.196   2.309   2.330   2.291   2.102   1.942   1.981   2.080   2.145   2.139   2.083   1.941   2.032   2.095   2.173   2.068   1.975   1.954   1.893   1.860   1.839   2.000   2.167   2.130   2.065   2.140   2.127   2.129   2.008   2.060   1.941   1.908   1.919   1.946   1.814   1.930   1.818   2.001   2.003   2.060   1.956   2.013   2.081   2.145   2.262
   121.00    2.217   2.354   2.270   2.243   2.220   2.437   2.366   2.451   2.566   2.429   2.341   2.351   2.241   2.169   2.057   2.188   2.148   2.088   2.049   2.192   2.142   2.475   2.465   2.307   2.236   2.413   2.272   2.276   2.171   2.312   2.355   2.328   2.252   1.929   1.909   2.116   2.125   1.943   1.944   1.872   1.850   1.911   2.088   1.987   1.994   1.913   1.911   2.070   2.036   2.128   2.142   2.233   1.872   2.019   1.894   2.063   1.961   1.809   2.019   1.869   1.871   1.912   1.893   1.879   2.025   1.990   2.071   2.057   1.948   2.024   1.931   1.912   1.978
   116.00    2.113   2.205   2.175   2.244   2.235   2.369   2.326   2.446   2.513   2.390   2.388   2.274   2.053   2.230   2.227   2.072   2.120   1.945   1.924   2.088   2.245   2.339   2.455   2.483   2.335   2.468   2.335   2.233   2.339   2.423   2.388   2.426   2.154   1.976   1.932   2.064   2.006   1.950   1.957   1.753   1.928   1.952   2.073   2.149   2.015   2.096   2.156   2.123   2.118   2.146   1.970   1.970   1.948   1.711   1.926   1.917   1.905   1.934   1.875   1.943   1.934   1.899   1.998   1.968   2.129   2.128   2.222   2.049   2.020   2.052   1.964   1.906   2.054
   111.00    2.169   2.011   2.063   2.355   2.394   2.373   2.373   2.366   2.346   2.373   2.381   2.347   2.242   2.348   2.299   2.077   2.188   1.903   1.772   1.816   2.126   2.318   2.325   2.362   2.298   2.340   2.431   2.389   2.374   2.453   2.272   2.269   2.189   1.959   1.913   1.855   1.863   1.837   1.864   1.888   2.040   2.123   2.154   2.279   2.135   2.180   2.122   2.065   2.044   2.081   2.091   2.065   1.906   1.925   1.960   1.995   1.817   1.860   1.989   1.970   2.217   2.036   2.033   1.935   1.949   2.041   2.163   2.155   2.031   2.057   2.140   1.989   1.957
   106.00    2.133   2.111   2.200   2.279   2.388   2.412   2.494   2.484   2.426   2.507   2.537   2.441   2.264   2.375   2.409   2.056   2.095   1.973   1.899   2.002   2.168   2.248   2.453   2.558   2.365   2.483   2.503   2.330   2.354   2.222   2.239   2.280   1.992   1.924   1.844   2.069   1.986   1.810   1.912   1.837   1.887   1.990   2.227   2.362   2.430   2.296   2.333   2.169   2.178   2.055   2.210   2.110   1.992   1.963   2.044   2.056   1.971   1.950   2.139   1.994   2.121   2.229   2.237   2.174   1.945   2.066   2.322   2.346   2.243   2.248   2.364   2.331   2.124
   101.00    1.990   1.998   2.147   2.312   2.435   2.630   2.578   2.513   2.346   2.274   2.521   2.594   2.289   2.286   2.277   2.179   2.114   2.025   2.085   2.004   2.238   2.284   2.244   2.372   2.245   2.317   2.167   2.149   2.073   2.083   2.050   1.982   2.036   1.895   1.948   1.915   1.951   1.896   1.897   1.836   1.872   2.079   2.205   2.294   2.393   2.293   2.385   2.278   2.333   2.265   2.052   2.166   1.997   2.044   2.109   2.035   2.237   2.242   2.249   2.261   2.205   2.272   2.348   2.336   2.155   2.130   2.350   2.359   2.378   2.270   2.239   2.215   2.262
    96.00    2.203   2.265   2.238   2.339   2.558   2.649   2.609   2.488   2.379   2.362   2.455   2.374   2.352   2.319   2.220   2.248   2.325   2.115   2.146   2.187   2.309   2.104   2.204   2.249   2.285   2.257   2.088   1.953   1.806   1.903   1.957   2.006   1.917   1.936   1.885   1.887   2.027   1.965   2.091   1.886   1.899   2.060   2.174   2.487   2.348   2.294   2.377   2.428   2.352   2.367   2.118   2.015   2.000   1.991   2.090   2.239   2.349   2.439   2.299   2.291   2.416   2.484   2.491   2.309   2.353   2.395   2.392   2.258   2.333   2.330   2.439   2.361   2.370
    91.00    2.369   2.392   2.274   2.332   2.427   2.484   2.470   2.411   2.362   2.382   2.437   2.293   2.420   2.264   2.338   2.245   2.333   2.164   2.313   2.250   2.181   2.272   2.138   2.074   2.258   2.321   2.123   1.910   2.001   2.021   2.010   2.022   1.792   1.842   1.939   2.002   2.085   2.128   1.935   1.906   1.949   2.143   2.133   2.384   2.425   2.561   2.572   2.609   2.462   2.449   2.181   2.174   2.166   2.267   2.186   2.385   2.582   2.565   2.386   2.383   2.426   2.514   2.592   2.533   2.520   2.438   2.513   2.404   2.498   2.376   2.387   2.254   2.383
    86.00    2.284   2.133   2.169   2.185   2.403   2.313   2.297   2.185   2.249   2.232   2.417   2.192   2.309   2.358   2.384   2.458   2.348   2.188   2.210   2.248   2.103   2.165   2.266   2.149   2.062   2.051   2.004   1.997   2.001   2.142   2.013   2.096   1.966   1.938   1.842   1.798   1.982   2.052   2.135   1.979   1.992   2.109   2.250   2.371   2.408   2.385   2.539   2.444   2.501   2.349   2.337   2.150   2.352   2.587   2.464   2.558   2.615   2.724   2.476   2.547   2.611   2.522   2.521   2.580   2.465   2.556   2.465   2.219   2.156   2.286   2.232   2.241   2.470
    81.00    2.213   2.261   2.297   2.324   2.433   2.196   2.228   2.155   2.207   2.264   2.293   2.245   2.312   2.395   2.431   2.497   2.418   2.234   2.097   1.955   2.085   2.183   2.145   2.097   2.042   1.967   1.839   1.935   2.157   2.033   1.928   1.979   1.848   1.817   1.789   1.747   2.027   2.027   2.059   2.027   2.064   2.038   2.093   2.278   2.307   2.389   2.444   2.476   2.416   2.261   2.307   2.286   2.308   2.582   2.500   2.568   2.632   2.685   2.514   2.558   2.683   2.716   2.562   2.414   2.509   2.595   2.377   2.257   2.114   2.233   2.237   2.274   2.430
    76.00    2.245   2.275   2.358   2.275   2.279   2.075   2.109   2.045   2.131   2.229   2.227   2.242   2.199   2.321   2.355   2.335   2.383   2.158   1.956   1.902   2.022   2.108   1.940   1.950   1.867   1.916   1.813   1.904   1.898   1.969   1.913   1.925   1.821   1.824   1.745   1.845   1.978   1.909   1.966   1.917   2.017   2.138   2.059   2.171   2.274   2.392   2.499   2.331   2.505   2.312   2.238   2.435   2.456   2.582   2.583   2.496   2.657   2.740   2.695   2.582   2.605   2.590   2.727   2.287   2.470   2.418   2.259   2.181   2.158   2.222   2.285   2.139   2.325
    71.00    2.252   2.289   2.356   2.266   2.171   2.127   2.071   2.109   2.214   2.272   2.154   2.166   2.202   2.210   2.333   2.269   2.275   2.175   2.054   2.132   2.157   2.043   1.978   1.861   1.774   1.695   1.696   1.816   1.805   1.767   1.775   1.862   1.750   1.956   1.990   1.895   1.962   2.016   1.976   1.917   2.063   2.240   2.078   2.041   2.299   2.434   2.294   2.272   2.255   2.373   2.552   2.399   2.464   2.446   2.402   2.568   2.723   2.755   2.604   2.519   2.652   2.695   2.504   2.373   2.424   2.209   2.244   2.192   2.205   2.390   2.261   2.085   2.206
    66.00    2.300   2.280   2.349   2.377   2.249   2.189   2.090   2.001   2.145   2.155   2.129   2.054   2.124   2.228   2.284   2.294   2.104   2.144   2.212   2.243   2.268   2.134   2.008   1.970   1.767   1.671   1.737   1.852   1.850   1.882   1.919   1.874   1.884   1.974   2.052   2.210   2.084   2.034   2.119   2.042   2.227   2.242   2.281   2.221   2.189   2.338   2.271   2.227   2.269   2.379   2.579   2.335   2.536   2.303   2.172   2.405   2.522   2.686   2.422   2.394   2.611   2.661   2.599   2.333   2.488   2.325   2.412   2.377   2.305   2.317   2.241   2.372   2.345
    61.00    2.266   2.239   2.115   2.427   2.330   2.366   2.145   2.008   2.078   2.136   2.148   2.010   2.082   2.198   2.293   2.254   2.216   2.224   2.169   2.191   1.995   2.109   1.983   1.853   1.681   1.785   1.760   1.791   1.834   1.705   1.790   1.975   1.901   2.091   2.271   2.213   2.135   2.036   2.226   2.182   2.117   2.152   2.189   2.157   2.152   2.283   2.237   2.270   2.149   2.246   2.511   2.595   2.602   2.473   2.569   2.520   2.464   2.498   2.509   2.474   2.483   2.476   2.319   2.471   2.480   2.516   2.462   2.334   2.248   2.298   2.270   2.277   2.281
    56.00    2.040   2.103   2.347   2.437   2.284   2.294   2.194   2.320   2.114   2.122   2.086   2.019   2.005   2.189   2.115   2.270   2.308   2.263   2.246   2.093   2.051   1.961   1.843   1.875   1.917   1.765   1.799   1.739   1.826   1.630   1.788   1.825   2.047   2.396   2.429   2.130   2.128   2.184   2.253   2.336   2.308   2.075   2.266   2.164   2.170   2.092   2.352   2.337   2.172   2.317   2.457   2.723   2.550   2.576   2.603   2.651   2.617   2.512   2.510   2.585   2.593   2.384   2.417   2.363   2.175   2.338   2.203   2.352   2.446   2.256   2.434   2.301   2.328
    51.00    1.982   2.024   2.062   2.289   2.243   2.298   2.289   2.370   2.134   1.987   1.931   2.068   2.065   2.022   2.254   2.229   2.238   2.188   2.338   2.291   2.229   1.966   1.795   1.951   1.872   1.833   1.851   2.013   1.759   1.652   1.722   1.952   2.265   2.287   2.495   2.318   2.194   2.250   2.262   2.290   2.306   1.916   2.029   2.047   2.192   2.197   2.308   2.407   2.470   2.404   2.524   2.602   2.636   2.660   2.720   2.730   2.572   2.391   2.359   2.473   2.685   2.354   2.275   2.190   2.250   2.433   2.439   2.409   2.450   2.534   2.505   2.324   2.211
    46.00    2.221   2.180   2.206   2.347   2.388   2.166   2.333   2.263   2.057   2.016   1.972   2.021   2.142   2.252   2.169   2.326   2.298   2.166   2.307   2.205   1.908   1.852   1.807   1.786   1.840   1.894   1.969   1.950   1.814   1.711   1.944   2.105   2.259   2.268   2.242   2.256   2.230   2.241   2.137   2.310   2.118   1.990   1.894   2.070   2.235   2.306   2.267   2.352   2.512   2.451   2.401   2.641   2.705   2.739   2.603   2.548   2.734   2.462   2.538   2.593   2.576   2.565   2.248   2.162   2.147   2.312   2.412   2.439   2.232   2.288   2.260   2.226   2.284
    41.00    2.277   2.047   2.242   2.274   2.360   2.216   2.383   2.165   1.967   1.958   1.927   2.139   2.127   2.288   2.314   2.388   2.197   2.049   2.205   2.098   1.776   1.778   1.715   1.808   1.823   1.737   1.890   1.943   1.886   1.897   1.959   2.060   2.081   2.126   2.063   1.955   2.193   2.259   2.135   2.188   2.249   1.968   1.980   2.192   2.197   2.210   2.315   2.415   2.441   2.706   2.584   2.687   2.615   2.689   2.716   2.777   2.796   2.528   2.590   2.549   2.693   2.512   2.319   2.219   2.194   2.337   2.490   2.298   2.178   2.147   2.151   2.250   2.269
    36.00    2.094   2.149   2.242   2.141   2.361   2.255   2.344   2.111   2.160   2.019   2.019   2.040   2.189   2.191   2.369   2.368   2.410   2.220   2.069   1.983   1.850   1.694   1.608   1.772   1.815   1.715   1.793   1.779   1.795   1.999   1.999   2.095   2.034   2.054   2.000   1.911   2.042   2.209   2.286   2.270   2.213   2.117   2.144   2.200   2.207   2.260   2.313   2.352   2.372   2.601   2.668   2.562   2.667   2.828   2.722   2.882   2.706   2.768   2.736   2.565   2.547   2.424   2.272   2.170   2.009   2.213   2.313   2.391   2.280   2.349   2.393   2.265   2.342
    31.00    2.081   1.983   2.041   2.155   2.263   2.216   2.164   2.033   2.010   1.822   1.947   2.007   2.081   2.250   2.345   2.302   2.203   2.089   1.963   2.065   1.754   1.678   1.692   1.782   1.725   1.733   1.655   1.672   1.676   1.800   1.789   1.939   1.957   1.981   1.904   1.979   2.003   2.237   2.239   2.246   2.156   2.136   2.285   2.341   2.426   2.373   2.427   2.499   2.452   2.496   2.552   2.386   2.535   2.519   2.680   2.752   2.825   2.743   2.606   2.405   2.548   2.408   2.269   2.068   1.962   2.121   2.289   2.360   2.396   2.427   2.426   2.374   2.452
    26.00    1.963   1.794   1.973   2.059   2.023   2.035   2.093   2.198   2.097   1.946   1.952   2.144   2.172   2.165   2.293   2.251   2.208   2.031   1.941   1.971   1.806   1.783   1.622   1.593   1.663   1.801   1.667   1.725   1.755   1.670   1.674   1.744   1.971   2.006   1.912   1.977   1.977   2.054   2.072   2.143   2.192   1.990   2.199   2.322   2.415   2.643   2.575   2.309   2.395   2.337   2.432   2.364   2.380   2.409   2.632   2.591   2.694   2.660   2.579   2.539   2.386   2.391   2.439   2.261   2.245   2.323   2.230   2.304   2.505   2.403   2.553   2.519   2.525
    21.00    1.916   1.784   1.828   1.881   2.067   2.024   1.975   2.159   1.999   2.066   2.123   2.248   2.245   2.436   2.536   2.401   2.119   2.026   1.928   1.841   1.907   1.868   1.762   1.562   1.638   1.806   1.694   1.788   1.736   1.585   1.636   1.674   1.922   1.924   1.855   1.956   2.055   1.950   2.078   2.085   1.995   2.134   2.078   2.254   2.267   2.562   2.525   2.498   2.362   2.365   2.500   2.590   2.466   2.339   2.453   2.427   2.446   2.496   2.436   2.441   2.390   2.448   2.420   2.245   2.226   2.438   2.224   2.338   2.326   2.360   2.423   2.674   2.620
    16.00    1.868   1.795   1.721   1.912   1.878   1.825   1.850   1.907   2.041   2.224   2.116   2.340   2.380   2.366   2.331   2.375   2.327   2.117   1.994   2.062   1.974   1.927   1.873   1.804   1.797   1.771   1.869   1.699   1.732   1.644   1.672   1.709   1.852   1.843   1.841   1.933   1.962   1.925   1.939   2.052   2.068   2.191   2.137   2.290   2.373   2.505   2.546   2.352   2.299   2.549   2.537   2.436   2.469   2.383   2.396   2.393   2.353   2.543   2.554   2.583   2.383   2.235   2.240   2.398   2.521   2.486   2.543   2.398   2.438   2.369   2.233   2.379   2.480
    11.00    1.839   1.801   1.818   1.837   1.762   1.837   1.722   1.982   2.068   2.195   2.137   2.376   2.441   2.386   2.242   2.294   2.406   2.248   2.072   2.122   1.992   1.975   1.866   1.831   1.730   1.622   1.755   1.734   1.657   1.577   1.603   1.764   1.774   1.893   1.793   1.840   1.785   1.771   1.850   1.955   2.132   2.298   2.236   2.176   2.310   2.396   2.366   2.409   2.447   2.475   2.615   2.700   2.705   2.464   2.460   2.311   2.435   2.457   2.519   2.481   2.326   2.387   2.470   2.487   2.373   2.429   2.529   2.382   2.476   2.291   2.213   2.530   2.453
     6.00    2.064   1.986   1.945   1.915   1.913   1.859   1.692   1.922   2.018   2.004   1.984   2.212   2.263   2.387   2.272   2.281   2.265   2.212   2.042   2.077   2.117   1.978   1.968   1.715   1.865   1.704   1.629   1.633   1.693   1.615   1.733   1.819   1.857   1.835   1.871   1.815   1.737   1.756   1.983   2.083   2.100   2.333   2.318   2.328   2.298   2.224   2.316   2.394   2.522   2.198   2.358   2.412   2.508   2.429   2.370   2.397   2.489   2.471   2.458   2.514   2.475   2.693   2.434   2.300   2.329   2.453   2.362   2.390   2.501   2.547   2.473   2.653   2.577
     1.00    2.138   2.244   2.156   2.019   1.886   1.728   1.793   1.823   1.911   1.738   1.994   2.152   2.091   2.259   2.330   2.262   2.077   2.106   2.185   2.135   2.023   2.042   1.930   1.874   1.859   1.871   1.706   1.574   1.672   1.629   1.781   1.828   1.815   1.922   1.864   1.970   1.919   1.896   1.944   1.916   2.119   2.216   2.446   2.315   2.188   2.270   2.346   2.347   2.458   2.279   2.226   2.085   2.195   2.249   2.325   2.119   2.278   2.418   2.401   2.514   2.476   2.619   2.275   2.213   2.190   2.338   2.469   2.460   2.484   2.374   2.460   2.506   2.609

   Height   Standard deviation at grid points for the v component:
   301.00    1.957   1.945   1.947   1.913   1.733   1.677   1.669   1.658   1.719   1.854   1.691   1.821   1.881   1.835   1.725   1.653   1.687   1.689   1.643   1.689   1.644   1.597   1.694   1.702   1.717   1.756   1.719   1.622   1.752   1.768   1.697   1.768   1.806   1.826   1.877   1.947   1.841   1.841   1.982   1.846   1.920   1.933   1.809   1.835   1.756   1.728   1.826   1.803   1.916   1.825   1.834   1.953   1.928   1.853   1.884   1.826   1.837   1.851   1.849   1.857   1.911   1.760   1.846   1.928   1.953   1.957   1.969   2.036   2.225   2.102   1.992   2.049   2.054
   296.00    1.950   1.865   1.795   1.791   1.778   1.645   1.712   1.702   1.703   1.766   1.818   1.879   1.960   1.865   1.654   1.635   1.747   1.709   1.615   1.646   1.670   1.687   1.613   1.638   1.752   1.820   1.658   1.694   1.668   1.706   1.689   1.803   1.861   1.732   1.776   1.850   1.835   1.876   1.935   1.938   1.827   1.851   1.803   1.781   1.826   1.758   1.839   1.795   1.792   1.849   1.749   1.835   1.912   1.773   1.785   1.793   1.835   1.741   1.812   1.946   1.965   1.948   1.862   1.926   1.950   2.004   2.020   2.091   2.142   2.193   2.082   2.062   1.941
   291.00    1.988   1.933   1.810   1.747   1.727   1.741   1.649   1.709   1.789   1.845   1.759   1.952   1.871   1.871   1.724   1.740   1.658   1.696   1.640   1.619   1.560   1.693   1.692   1.780   1.826   1.749   1.659   1.694   1.720   1.648   1.699   1.869   1.870   1.773   1.677   1.775   1.760   1.825   1.874   1.825   1.836   1.837   1.747   1.749   1.789   1.787   1.752   1.808   1.830   1.754   1.854   1.824   1.768   1.708   1.765   1.773   1.741   1.818   1.917   1.957   1.901   1.913   1.808   1.910   1.904   1.985   2.155   2.201   2.222   2.217   2.075   1.999   1.998
   286.00    1.887   1.947   1.920   1.661   1.622   1.631   1.662   1.712   1.868   1.854   1.871   1.819   1.888   1.817   1.679   1.623   1.663   1.631   1.607   1.614   1.606   1.724   1.900   1.879   1.762   1.760   1.649   1.780   1.838   1.832   1.759   1.780   1.780   1.855   1.752   1.743   1.768   1.824   1.846   1.847   1.806   1.914   1.891   1.758   1.745   1.748   1.766   1.842   1.865   1.926   1.988   1.899   1.843   1.752   1.664   1.760   1.732   1.759   1.847   1.904   1.843   1.920   1.808   1.903   1.913   2.018   2.064   2.130   2.141   2.104   2.065   2.007   1.896
   281.00    1.864   1.802   1.908   1.713   1.662   1.676   1.646   1.729   1.885   1.870   1.842   1.713   1.723   1.832   1.760   1.622   1.654   1.560   1.678   1.601   1.653   1.710   1.880   1.843   1.709   1.659   1.664   1.764   1.816   1.901   1.787   1.742   1.717   1.710   1.681   1.791   1.916   1.987   1.910   1.828   1.887   1.874   1.937   1.880   1.870   1.810   1.727   1.746   1.762   1.773   1.822   1.878   1.776   1.800   1.730   1.730   1.728   1.711   1.770   1.837   1.826   1.795   1.829   1.933   1.862   2.046   2.063   2.057   2.155   2.049   2.049   2.066   1.924
   276.00    1.782   1.803   1.830   1.882   1.773   1.694   1.676   1.828   1.795   1.783   1.712   1.673   1.695   1.702   1.721   1.670   1.613   1.548   1.589   1.639   1.678   1.781   1.834   1.830   1.828   1.744   1.728   1.792   1.811   1.852   1.847   1.778   1.654   1.592   1.651   1.830   1.861   1.880   1.820   1.813   1.888   1.944   1.888   1.800   1.762   1.887   1.740   1.721   1.610   1.689   1.582   1.773   1.734   1.809   1.746   1.718   1.760   1.732   1.703   1.825   1.874   1.781   1.765   1.799   1.958   1.920   2.040   2.013   2.084   2.139   2.038   1.941   1.678
   271.00    1.766   1.770   1.786   1.911   1.894   1.721   1.687   1.807   1.740   1.786   1.794   1.684   1.577   1.685   1.644   1.624   1.556   1.587   1.563   1.655   1.672   1.775   1.793   1.851   2.036   1.818   1.806   1.798   1.837   1.797   1.676   1.670   1.622   1.656   1.666   1.780   1.766   1.698   1.694   1.792   1.936   1.946   1.842   1.764   1.780   1.740   1.712   1.740   1.651   1.710   1.645   1.831   1.837   1.888   1.889   1.801   1.664   1.632   1.695   1.701   1.734   1.675   1.711   1.802   1.870   1.752   1.955   2.094   2.085   2.037   2.017   1.805   1.649
   266.00    1.685   1.767   1.837   1.826   1.815   1.807   1.754   1.785   1.765   1.812   1.729   1.686   1.561   1.552   1.660   1.661   1.606   1.660   1.652   1.624   1.619   1.758   1.677   1.753   1.909   1.942   1.926   1.738   1.809   1.701   1.668   1.546   1.689   1.746   1.748   1.728   1.806   1.666   1.646   1.713   1.845   1.723   1.807   1.849   1.772   1.759   1.757   1.782   1.740   1.671   1.640   1.921   1.985   1.858   1.932   1.814   1.802   1.744   1.814   1.740   1.565   1.690   1.631   1.706   1.751   1.821   1.806   1.893   1.979   1.961   1.849   1.710   1.776
   261.00    1.724   1.785   1.771   1.735   1.738   1.690   1.663   1.679   1.640   1.702   1.694   1.534   1.507   1.534   1.557   1.536   1.569   1.669   1.687   1.644   1.598   1.713   1.758   1.730   1.777   1.866   1.799   1.684   1.716   1.625   1.551   1.515   1.576   1.680   1.595   1.777   1.749   1.687   1.741   1.856   1.797   1.815   1.759   1.854   1.742   1.723   1.687   1.732   1.735   1.756   1.816   1.871   2.043   1.961   1.904   1.757   1.850   1.848   1.760   1.755   1.650   1.747   1.654   1.604   1.729   1.776   1.793   1.814   1.842   1.810   1.809   1.729   1.842
   256.00    1.695   1.732   1.693   1.708   1.641   1.523   1.582   1.605   1.690   1.616   1.583   1.633   1.516   1.494   1.517   1.513   1.484   1.551   1.610   1.576   1.630   1.719   1.774   1.691   1.695   1.775   1.677   1.570   1.753   1.807   1.655   1.693   1.612   1.768   1.676   1.718   1.744   1.743   1.889   1.861   1.860   1.868   1.947   1.927   1.681   1.753   1.745   1.771   1.827   1.760   1.902   1.914   2.000   1.964   1.991   1.775   1.869   1.843   1.868   1.822   1.701   1.763   1.669   1.736   1.743   1.734   1.814   1.898   1.813   1.781   1.780   1.805   1.924
   251.00    1.662   1.825   1.941   1.867   1.638   1.578   1.603   1.610   1.656   1.659   1.635   1.514   1.510   1.504   1.479   1.477   1.466   1.540   1.570   1.618   1.619   1.584   1.653   1.605   1.668   1.692   1.680   1.604   1.702   1.778   1.738   1.639   1.732   1.747   1.741   1.814   1.722   1.794   1.825   1.910   1.878   1.936   1.919   1.775   1.736   1.734   1.715   1.805   1.893   1.932   1.854   1.897   2.058   2.028   1.891   1.832   1.772   1.914   1.744   1.883   1.728   1.754   1.752   1.761   1.758   1.843   1.799   1.830   1.890   1.850   1.910   1.826   1.966
   246.00    1.754   1.745   1.804   1.911   1.786   1.643   1.704   1.608   1.674   1.690   1.622   1.510   1.430   1.473   1.420   1.454   1.557   1.483   1.544   1.618   1.687   1.691   1.691   1.580   1.611   1.659   1.691   1.745   1.715   1.735   1.636   1.716   1.718   1.726   1.727   1.700   1.766   1.798   1.868   1.872   1.875   1.952   1.924   1.760   1.774   1.746   1.733   1.760   1.819   1.855   1.847   1.836   2.020   2.019   1.998   1.968   1.823   1.814   1.855   1.892   1.795   1.743   1.772   1.759   1.902   1.768   1.816   1.941   1.826   1.837   1.939   2.013   2.049
   241.00    1.853   1.897   1.843   1.941   1.919   1.762   1.850   1.776   1.766   1.697   1.647   1.447   1.498   1.457   1.438   1.590   1.509   1.535   1.570   1.708   1.610   1.628   1.692   1.543   1.629   1.589   1.675   1.781   1.707   1.679   1.650   1.659   1.721   1.707   1.715   1.825   1.688   1.899   1.900   2.010   2.070   1.998   1.814   1.791   1.743   1.767   1.773   1.800   1.810   1.816   1.869   1.848   1.919   1.895   1.893   1.958   1.873   1.762   1.752   1.802   1.657   1.609   1.718   1.807   1.805   1.735   1.822   1.898   1.881   1.850   1.874   2.011   1.985
   236.00    1.783   1.858   1.823   1.908   1.821   1.804   1.788   1.888   1.795   1.710   1.670   1.545   1.493   1.438   1.505   1.599   1.664   1.645   1.640   1.604   1.638   1.681   1.772   1.656   1.595   1.614   1.677   1.768   1.705   1.679   1.714   1.673   1.557   1.682   1.642   1.733   1.869   1.919   1.856   1.938   2.002   1.935   1.847   1.823   1.751   1.715   1.732   1.726   1.733   1.854   1.757   1.818   1.838   1.907   1.907   1.868   1.745   1.733   1.761   1.729   1.651   1.670   1.733   1.824   1.733   1.789   1.798   1.826   1.855   1.885   1.872   1.894   1.931
   231.00    1.858   1.803   1.834   1.891   1.924   1.829   1.895   1.820   1.730   1.744   1.612   1.566   1.542   1.628   1.551   1.554   1.679   1.646   1.705   1.772   1.614   1.735   1.761   1.657   1.636   1.644   1.683   1.733   1.676   1.772   1.720   1.680   1.711   1.774   1.752   1.711   1.792   1.881   1.990   1.918   1.838   1.917   1.942   1.805   1.659   1.620   1.674   1.657   1.582   1.766   1.668   1.837   1.913   1.946   1.912   1.890   1.742   1.733   1.636   1.640   1.680   1.662   1.693   1.763   1.815   1.786   1.770   1.782   1.792   1.795   1.861   1.828   1.884
   226.00    1.905   1.886   1.898   1.943   1.963   1.913   1.783   1.841   1.660   1.726   1.584   1.577   1.642   1.581   1.541   1.584   1.615   1.752   1.718   1.669   1.651   1.673   1.763   1.678   1.707   1.753   1.718   1.769   1.768   1.787   1.710   1.749   1.794   1.815   1.742   1.807   1.897   1.867   1.916   1.898   1.984   1.922   1.833   1.760   1.635   1.549   1.710   1.658   1.705   1.653   1.639   1.713   1.681   1.774   1.876   1.806   1.697   1.713   1.580   1.570   1.592   1.605   1.669   1.741   1.761   1.810   1.717   1.753   1.748   1.747   1.746   1.811   1.870
   221.00    2.042   2.014   1.951   1.930   1.935   1.942   1.954   1.783   1.739   1.652   1.575   1.596   1.652   1.583   1.572   1.574   1.611   1.655   1.762   1.648   1.668   1.586   1.713   1.695   1.726   1.647   1.663   1.672   1.692   1.718   1.679   1.756   1.727   1.811   1.773   1.825   1.815   1.708   1.799   1.842   1.861   1.842   1.786   1.699   1.680   1.579   1.632   1.531   1.543   1.621   1.605   1.621   1.655   1.737   1.747   1.711   1.767   1.647   1.599   1.642   1.512   1.619   1.615   1.711   1.743   1.756   1.749   1.670   1.635   1.609   1.745   1.872   1.915
   216.00    2.156   2.055   1.915   1.897   1.963   1.915   2.046   1.979   1.788   1.769   1.665   1.651   1.750   1.621   1.567   1.543   1.653   1.701   1.796   1.755   1.719   1.664   1.688   1.756   1.724   1.627   1.680   1.684   1.600   1.722   1.723   1.735   1.798   1.748   1.822   1.679   1.792   1.841   1.748   1.924   2.021   1.849   1.757   1.683   1.732   1.649   1.636   1.607   1.606   1.614   1.616   1.614   1.746   1.857   1.882   1.811   1.830   1.639   1.563   1.555   1.497   1.660   1.702   1.688   1.663   1.692   1.689   1.711   1.672   1.687   1.734   1.865   1.889
   211.00    2.077   1.936   1.900   1.938   1.875   1.915   1.868   1.938   1.961   1.949   1.784   1.775   1.785   1.736   1.739   1.777   1.719   1.743   1.769   1.747   1.737   1.708   1.716   1.746   1.799   1.815   1.678   1.654   1.646   1.670   1.767   1.690   1.744   1.803   1.766   1.781   1.733   1.765   1.875   1.959   1.925   1.792   1.751   1.859   1.822   1.673   1.652   1.641   1.715   1.703   1.702   1.711   1.681   1.816   1.792   1.871   1.731   1.617   1.530   1.549   1.625   1.614   1.582   1.571   1.565   1.588   1.570   1.661   1.660   1.786   1.771   1.771   1.853
   206.00    1.908   1.808   1.765   1.768   1.816   1.821   1.808   1.785   1.931   1.893   1.880   1.851   1.751   1.827   1.711   1.831   1.840   1.732   1.684   1.702   1.731   1.757   1.717   1.729   1.776   1.732   1.772   1.654   1.678   1.673   1.825   1.769   1.895   1.812   1.866   1.703   1.639   1.713   1.769   1.891   1.865   1.872   1.751   1.907   1.799   1.664   1.595   1.691   1.688   1.741   1.580   1.653   1.766   1.873   1.840   1.718   1.733   1.549   1.579   1.711   1.685   1.665   1.625   1.690   1.635   1.576   1.616   1.620   1.772   1.811   1.856   1.801   1.829
   201.00    1.862   1.714   1.732   1.636   1.719   1.755   1.720   1.763   1.801   1.793   1.806   1.753   1.788   1.794   1.850   1.865   1.748   1.738   1.649   1.766   1.796   1.706   1.761   1.763   1.753   1.715   1.781   1.734   1.609   1.688   1.846   1.919   1.973   1.955   1.893   1.857   1.733   1.676   1.818   1.861   1.886   1.856   1.854   1.936   1.753   1.645   1.635   1.621   1.637   1.657   1.715   1.733   1.881   1.825   1.717   1.716   1.684   1.687   1.615   1.749   1.723   1.735   1.723   1.657   1.587   1.557   1.592   1.724   1.718   1.815   1.805   1.814   1.795
   196.00    1.798   1.655   1.568   1.616   1.659   1.668   1.722   1.656   1.817   1.837   1.699   1.645   1.797   1.810   1.842   1.790   1.747   1.700   1.803   1.845   1.870   1.869   1.854   1.832   1.866   1.695   1.688   1.728   1.786   1.848   1.801   1.896   2.039   2.010   1.821   1.770   1.739   1.684   1.838   1.857   1.850   1.869   1.851   1.833   1.728   1.766   1.800   1.615   1.704   1.696   1.664   1.702   1.771   1.748   1.724   1.683   1.648   1.608   1.621   1.572   1.670   1.678   1.725   1.704   1.627   1.628   1.565   1.680   1.675   1.688   1.761   1.760   1.713
   191.00    1.695   1.610   1.665   1.602   1.601   1.694   1.715   1.698   1.654   1.749   1.599   1.674   1.746   1.783   1.792   1.742   1.838   1.814   1.852   1.895   1.860   1.760   1.821   1.802   1.768   1.761   1.601   1.699   1.814   1.857   1.806   1.810   2.002   1.878   1.825   1.804   1.766   1.800   1.845   1.801   1.811   1.797   1.862   1.775   1.775   1.858   1.828   1.724   1.769   1.738   1.786   1.853   1.785   1.912   1.790   1.747   1.715   1.687   1.657   1.748   1.697   1.658   1.582   1.595   1.555   1.584   1.572   1.577   1.617   1.743   1.785   1.784   1.788
   186.00    1.654   1.553   1.557   1.557   1.587   1.696   1.676   1.641   1.542   1.568   1.634   1.561   1.612   1.745   1.823   1.853   1.817   1.864   1.964   1.965   1.887   1.842   1.845   1.722   1.698   1.738   1.686   1.663   1.700   1.738   1.752   1.816   2.021   1.880   1.761   1.716   1.742   1.843   1.905   1.826   1.649   1.755   1.727   1.725   1.785   1.807   1.771   1.732   1.818   1.797   1.887   1.871   1.867   1.929   1.940   1.918   1.867   1.885   1.765   1.769   1.805   1.764   1.687   1.695   1.529   1.591   1.633   1.667   1.680   1.775   1.796   1.796   1.779
   181.00    1.633   1.636   1.552   1.514   1.481   1.594   1.650   1.669   1.629   1.551   1.569   1.560   1.605   1.637   1.740   1.842   1.869   1.921   1.901   2.008   1.914   1.833   1.775   1.796   1.735   1.602   1.635   1.662   1.590   1.581   1.745   1.875   1.934   1.890   1.737   1.740   1.827   1.979   1.919   1.839   1.803   1.589   1.618   1.680   1.712   1.607   1.786   1.729   1.816   1.908   1.944   2.033   2.019   1.992   1.908   1.962   1.893   1.842   1.833   1.951   1.705   1.734   1.639   1.593   1.529   1.639   1.646   1.678   1.670   1.712   1.731   1.727   1.784
   176.00    1.705   1.630   1.448   1.494   1.561   1.575   1.623   1.718   1.689   1.646   1.612   1.578   1.674   1.662   1.717   1.756   1.767   1.875   1.958   1.984   1.862   1.831   1.795   1.921   1.742   1.580   1.592   1.641   1.569   1.589   1.596   1.680   1.785   1.885   1.750   1.605   1.746   1.914   1.973   1.942   1.811   1.731   1.635   1.557   1.591   1.666   1.728   1.709   1.815   1.840   2.010   1.961   1.968   1.932   1.887   1.904   1.910   1.733   1.925   1.783   1.690   1.639   1.556   1.459   1.509   1.558   1.681   1.846   1.816   1.714   1.741   1.748   1.899
   171.00    1.708   1.721   1.611   1.567   1.548   1.564   1.694   1.625   1.603   1.721   1.684   1.579   1.632   1.663   1.753   1.804   1.833   1.991   1.954   1.960   1.830   1.808   1.806   1.845   1.795   1.595   1.551   1.574   1.511   1.599   1.606   1.734   1.811   1.851   1.778   1.647   1.660   1.830   1.859   1.907   1.829   1.772   1.644   1.601   1.670   1.678   1.687   1.714   1.697   1.797   1.838   1.939   1.878   1.847   1.966   2.060   1.874   1.940   1.886   1.893   1.638   1.656   1.670   1.655   1.643   1.579   1.702   1.750   1.746   1.619   1.647   1.699   1.806
   166.00    1.829   1.717   1.657   1.527   1.525   1.581   1.645   1.639   1.591   1.709   1.668   1.595   1.621   1.657   1.672   1.897   2.034   2.191   2.093   1.961   1.861   1.780   1.910   1.885   1.802   1.687   1.547   1.531   1.692   1.726   1.714   1.700   1.658   1.878   1.881   1.732   1.694   1.842   1.777   1.880   1.923   1.903   1.620   1.669   1.557   1.590   1.548   1.623   1.711   1.682   1.703   1.852   1.836   1.934   1.942   2.091   2.014   1.896   1.964   1.918   1.818   1.878   1.752   1.791   1.811   1.705   1.707   1.745   1.692   1.698   1.673   1.693   1.797
   161.00    1.821   1.812   1.676   1.641   1.671   1.693   1.693   1.761   1.738   1.716   1.729   1.678   1.599   1.665   1.738   1.824   2.037   2.225   2.035   2.030   1.933   1.930   1.837   1.861   1.737   1.568   1.509   1.624   1.730   1.730   1.697   1.672   1.783   1.890   1.845   1.853   1.893   1.832   1.844   1.899   1.904   1.871   1.707   1.623   1.632   1.540   1.535   1.691   1.756   1.728   1.725   1.730   1.783   1.912   1.942   2.123   2.000   1.888   1.995   1.875   1.821   1.973   1.787   1.889   1.832   1.821   1.586   1.676   1.788   1.718   1.673   1.763   1.829
   156.00    1.913   1.860   1.825   1.716   1.736   1.772   1.811   1.723   1.729   1.761   1.676   1.702   1.591   1.650   1.738   1.906   1.914   2.048   2.002   1.916   1.930   1.995   1.882   1.850   1.683   1.620   1.582   1.653   1.792   1.747   1.785   1.822   1.896   1.782   1.810   1.889   1.832   1.828   1.892   1.931   1.842   1.737   1.666   1.632   1.517   1.561   1.541   1.690   1.713   1.717   1.738   1.790   1.714   1.889   1.936   1.981   1.953   2.090   2.052   1.983   1.929   1.928   1.902   1.955   1.855   1.779   1.778   1.733   1.785   1.773   1.781   1.885   1.793
   151.00    1.956   1.804   1.828   1.790   1.708   1.795   1.779   1.727   1.651   1.675   1.672   1.587   1.522   1.593   1.731   1.738   1.780   1.888   1.852   1.874   1.806   1.778   1.799   1.830   1.673   1.736   1.653   1.709   1.736   1.748   1.893   1.822   1.814   1.809   1.776   1.819   1.862   1.781   1.847   1.916   1.748   1.640   1.647   1.648   1.572   1.558   1.512   1.541   1.614   1.761   1.704   1.756   1.688   1.769   1.763   1.876   1.990   1.980   2.028   1.966   1.868   1.908   1.956   1.902   1.754   1.750   1.745   1.756   1.814   1.747   1.753   1.923   2.010
   146.00    1.979   1.859   1.807   1.724   1.780   1.856   1.820   1.667   1.774   1.761   1.615   1.662   1.591   1.577   1.682   1.607   1.720   1.732   1.752   1.705   1.701   1.699   1.845   1.832   1.779   1.759   1.645   1.685   1.742   1.916   1.883   1.890   1.779   1.765   1.838   1.796   1.765   1.771   1.770   1.848   1.755   1.779   1.649   1.639   1.693   1.603   1.467   1.530   1.489   1.656   1.691   1.670   1.648   1.710   1.711   1.792   2.016   2.027   2.009   1.941   1.874   1.838   1.966   1.878   1.815   1.798   1.673   1.699   1.744   1.734   1.872   2.012   2.050
   141.00    1.824   1.793   1.872   1.748   1.748   1.828   1.877   1.804   1.817   1.644   1.727   1.587   1.642   1.593   1.587   1.695   1.654   1.634   1.730   1.577   1.668   1.733   1.713   1.848   1.768   1.733   1.730   1.702   1.824   1.822   1.935   1.879   1.753   1.874   1.870   1.943   1.846   1.797   1.859   1.805   1.701   1.636   1.711   1.702   1.713   1.459   1.503   1.632   1.635   1.726   1.695   1.664   1.622   1.715   1.809   1.899   2.002   2.064   2.034   1.963   1.899   1.851   1.968   1.941   1.820   1.926   1.740   1.727   1.718   1.802   1.890   1.890   2.001
   136.00    1.938   1.890   1.796   1.831   1.735   1.739   1.823   1.838   1.857   1.658   1.552   1.597   1.579   1.652   1.664   1.643   1.654   1.632   1.672   1.622   1.651   1.651   1.700   1.853   1.823   1.743   1.734   1.751   1.768   1.773   1.794   1.743   1.694   1.801   1.897   1.859   1.913   1.934   1.760   1.733   1.749   1.629   1.645   1.678   1.641   1.558   1.490   1.553   1.716   1.768   1.698   1.676   1.639   1.701   1.748   1.927   2.014   2.022   2.029   1.869   1.869   1.762   1.846   1.710   1.702   1.784   1.918   1.828   1.738   1.802   1.873   1.910   2.014
   131.00    1.820   1.775   1.710   1.584   1.742   1.880   1.729   1.791   1.686   1.661   1.660   1.538   1.655   1.691   1.643   1.684   1.653   1.778   1.718   1.759   1.671   1.688   1.716   1.766   1.809   1.875   1.783   1.904   1.813   1.819   1.790   1.685   1.651   1.773   1.785   1.763   1.887   1.796   1.838   1.851   1.791   1.594   1.676   1.708   1.787   1.585   1.565   1.688   1.746   1.725   1.732   1.787   1.720   1.703   1.823   1.941   1.974   2.044   1.909   1.822   1.646   1.710   1.746   1.674   1.811   1.788   1.835   1.868   1.919   1.781   1.847   2.003   2.066
   126.00    1.789   1.601   1.474   1.640   1.733   1.851   1.775   1.824   1.766   1.774   1.777   1.768   1.694   1.743   1.642   1.646   1.736   1.718   1.771   1.650   1.627   1.781   1.858   1.926   1.952   1.987   1.912   1.877   1.803   1.838   1.687   1.720   1.758   1.648   1.685   1.733   1.804   1.780   1.782   1.783   1.801   1.729   1.668   1.835   1.772   1.766   1.752   1.695   1.758   1.800   1.850   1.849   1.794   1.804   1.822   1.946   1.931   1.929   1.820   1.821   1.761   1.723   1.742   1.722   1.747   1.806   1.795   1.861   1.968   1.926   1.840   1.876   2.060
   121.00    1.760   1.786   1.585   1.656   1.862   1.913   1.774   1.761   1.744   1.749   1.681   1.622   1.699   1.682   1.698   1.626   1.569   1.729   1.689   1.702   1.715   1.642   1.821   1.946   1.953   2.045   2.029   1.971   1.841   1.743   1.798   1.819   1.694   1.637   1.720   1.844   1.832   1.808   1.716   1.758   1.806   1.724   1.809   1.805   1.745   1.750   1.816   1.931   1.743   1.788   1.777   1.800   1.758   1.767   1.983   1.929   1.909   1.988   1.849   1.648   1.800   1.759   1.730   1.790   1.871   1.990   1.931   1.864   1.812   1.801   1.851   1.812   1.941
   116.00    1.838   1.695   1.606   1.743   1.811   1.843   1.754   1.783   1.697   1.694   1.714   1.612   1.676   1.649   1.580   1.555   1.566   1.580   1.642   1.724   1.667   1.782   1.862   2.006   2.085   2.088   1.985   1.982   1.863   1.762   1.791   1.782   1.696   1.672   1.808   1.760   1.758   1.673   1.640   1.714   1.733   1.662   1.739   1.711   1.813   1.703   1.725   1.783   1.740   1.716   1.612   1.691   1.703   1.769   1.938   1.986   1.969   2.087   1.904   1.880   1.801   1.903   1.870   1.912   1.876   1.972   1.937   1.917   1.870   1.810   1.751   1.728   1.814
   111.00    1.853   1.745   1.826   2.017   1.988   1.878   1.623   1.720   1.742   1.644   1.680   1.584   1.682   1.640   1.545   1.542   1.471   1.512   1.697   1.596   1.703   1.838   1.940   1.952   2.002   1.950   1.911   2.045   1.908   1.811   1.770   1.821   1.854   1.801   1.815   1.803   1.756   1.598   1.653   1.793   1.693   1.684   1.627   1.705   1.784   1.853   1.844   1.800   1.746   1.736   1.698   1.701   1.675   1.826   1.971   1.908   1.933   1.959   1.975   1.949   1.852   1.913   1.879   1.855   2.014   2.057   1.954   1.873   1.908   1.754   1.737   1.675   1.754
   106.00    1.826   1.839   1.822   1.921   2.011   1.913   1.635   1.649   1.770   1.664   1.657   1.615   1.697   1.647   1.657   1.456   1.446   1.642   1.651   1.637   1.750   1.931   1.985   2.043   1.930   1.962   1.812   1.885   1.844   1.683   1.742   1.830   1.874   1.714   1.733   1.760   1.703   1.725   1.672   1.719   1.695   1.681   1.620   1.711   1.854   1.815   1.870   1.763   1.672   1.863   1.815   1.821   1.978   1.903   1.931   2.051   1.867   1.876   1.814   1.924   1.844   1.934   1.751   1.823   1.938   2.068   1.891   1.808   1.728   1.744   1.715   1.631   1.715
   101.00    1.854   1.958   1.915   1.909   1.957   1.951   1.764   1.729   1.740   1.729   1.690   1.648   1.627   1.637   1.515   1.462   1.587   1.621   1.624   1.681   1.651   1.713   1.797   1.929   1.875   1.998   1.879   1.812   1.799   1.753   1.730   1.729   1.744   1.741   1.667   1.672   1.601   1.730   1.682   1.728   1.783   1.695   1.591   1.642   1.810   1.956   1.860   1.896   1.816   1.830   1.746   1.852   2.006   1.910   2.010   1.948   1.863   1.878   1.873   1.901   1.889   1.785   1.842   1.725   1.814   1.879   1.900   1.842   1.826   1.642   1.633   1.684   1.662
    96.00    1.758   1.871   1.901   1.928   1.991   1.853   1.755   1.744   1.726   1.581   1.639   1.616   1.557   1.576   1.579   1.461   1.509   1.561   1.621   1.669   1.545   1.642   1.746   1.866   1.949   1.991   1.906   1.830   1.857   1.736   1.679   1.760   1.612   1.618   1.704   1.682   1.563   1.643   1.518   1.749   1.677   1.657   1.645   1.753   1.781   1.840   1.881   1.895   1.831   1.841   1.665   1.785   1.733   1.850   1.952   2.045   1.951   1.840   1.771   1.811   1.781   1.622   1.688   1.591   1.648   1.729   1.799   1.858   1.878   1.844   1.749   1.746   1.738
    91.00    1.946   1.791   1.853   1.918   1.988   1.815   1.751   1.648   1.736   1.719   1.683   1.670   1.648   1.539   1.567   1.501   1.532   1.515   1.530   1.587   1.546   1.587   1.702   1.750   1.877   1.903   1.947   1.808   1.686   1.618   1.740   1.670   1.531   1.631   1.536   1.538   1.618   1.649   1.632   1.720   1.725   1.706   1.664   1.664   1.794   1.819   1.835   1.959   1.876   1.821   1.823   1.686   1.792   1.805   1.938   2.083   1.972   1.911   1.771   1.721   1.728   1.685   1.767   1.664   1.806   1.658   1.683   1.748   1.725   1.719   1.704   1.748   1.795
    86.00    1.954   1.896   1.918   1.836   1.859   1.785   1.646   1.580   1.718   1.735   1.665   1.724   1.669   1.574   1.526   1.539   1.661   1.504   1.570   1.550   1.489   1.575   1.653   1.669   1.725   1.857   1.969   1.972   1.747   1.773   1.871   1.606   1.616   1.628   1.639   1.637   1.634   1.679   1.638   1.750   1.707   1.733   1.727   1.816   1.761   1.895   2.012   1.995   1.877   1.800   1.816   1.851   1.899   2.044   2.029   2.125   1.990   1.917   1.806   1.798   1.760   1.627   1.592   1.732   1.779   1.613   1.665   1.685   1.586   1.617   1.652   1.702   1.703
    81.00    1.938   1.690   1.742   1.754   1.763   1.772   1.793   1.633   1.708   1.751   1.708   1.710   1.599   1.631   1.624   1.544   1.543   1.505   1.618   1.493   1.651   1.673   1.624   1.590   1.628   1.792   1.837   1.826   1.843   1.892   1.704   1.704   1.733   1.657   1.690   1.661   1.679   1.782   1.787   1.696   1.656   1.713   1.669   1.735   1.757   1.797   1.929   2.009   2.055   1.976   1.864   1.870   1.944   1.959   2.094   2.218   2.143   2.061   1.966   2.036   1.933   1.874   1.860   1.745   1.782   1.717   1.665   1.633   1.560   1.592   1.711   1.692   1.674
    76.00    1.867   1.747   1.751   1.804   1.762   1.855   1.804   1.761   1.663   1.716   1.639   1.690   1.678   1.589   1.573   1.506   1.541   1.476   1.591   1.621   1.736   1.655   1.634   1.610   1.636   1.720   1.799   1.824   1.804   1.774   1.760   1.745   1.759   1.626   1.633   1.708   1.785   1.743   1.746   1.718   1.721   1.686   1.636   1.836   1.690   1.765   1.896   2.063   2.085   2.098   1.958   2.083   2.179   2.054   2.110   2.135   2.175   1.960   2.058   1.927   1.946   1.807   1.792   1.652   1.637   1.703   1.679   1.681   1.614   1.547   1.647   1.648   1.671
    71.00    1.760   1.868   1.730   1.740   1.884   1.851   1.743   1.822   1.661   1.737   1.667   1.733   1.727   1.681   1.647   1.712   1.649   1.583   1.656   1.735   1.690   1.761   1.741   1.732   1.695   1.723   1.754   1.708   1.846   1.822   1.807   1.755   1.822   1.764   1.687   1.726   1.788   1.706   1.855   1.726   1.780   1.762   1.763   1.905   1.826   1.817   1.923   1.928   1.994   2.160   1.961   2.186   2.309   2.144   2.162   2.059   2.089   1.972   1.999   1.877   1.924   1.833   1.780   1.719   1.589   1.579   1.550   1.648   1.589   1.702   1.682   1.649   1.535
    66.00    1.866   1.852   1.856   1.942   1.868   1.841   1.842   1.870   1.775   1.748   1.623   1.705   1.721   1.730   1.790   1.774   1.613   1.660   1.747   1.693   1.723   1.654   1.814   1.713   1.651   1.617   1.730   1.745   1.766   1.875   1.842   1.755   1.908   1.782   1.751   1.735   1.766   1.652   1.771   1.719   1.720   1.753   1.791   1.789   1.844   1.932   1.843   1.961   2.054   1.994   2.080   2.235   2.294   2.189   2.277   2.106   2.055   1.968   1.899   1.902   1.925   1.918   1.841   1.687   1.724   1.620   1.674   1.703   1.760   1.690   1.683   1.620   1.580
    61.00    1.904   1.911   1.948   2.007   1.924   1.865   1.789   1.799   1.779   1.768   1.689   1.690   1.592   1.649   1.700   1.729   1.753   1.743   1.785   1.673   1.748   1.846   1.867   1.750   1.716   1.650   1.770   1.762   1.832   1.949   1.934   1.846   1.823   1.753   1.763   1.644   1.755   1.751   1.753   1.733   1.814   1.710   1.775   1.800   1.777   1.777   1.724   1.799   1.947   2.006   2.018   2.153   2.268   2.274   2.203   2.142   2.016   1.933   1.892   1.880   1.907   1.879   1.769   1.698   1.685   1.724   1.630   1.711   1.800   1.699   1.630   1.560   1.641
    56.00    1.902   1.934   1.980   1.904   1.894   1.808   1.840   1.721   1.740   1.837   1.680   1.596   1.629   1.654   1.793   1.813   1.702   1.763   1.881   1.756   1.738   1.931   1.921   2.010   1.729   1.710   1.834   1.781   1.818   1.926   1.766   1.852   1.849   1.730   1.787   1.704   1.743   1.817   1.737   1.755   1.791   1.651   1.753   1.675   1.734   1.644   1.640   1.692   1.862   1.961   2.066   2.106   2.232   2.223   2.215   2.195   2.107   2.117   1.934   1.923   2.030   1.943   1.809   1.751   1.628   1.655   1.755   1.930   1.755   1.693   1.588   1.687   1.716
    51.00    1.977   2.103   2.060   2.061   1.872   1.856   1.888   1.786   1.861   1.882   1.666   1.665   1.666   1.735   1.806   1.810   1.836   1.990   1.934   1.846   1.773   1.821   1.772   1.874   1.782   1.733   1.891   1.843   1.831   1.857   1.809   1.801   1.881   1.887   1.835   1.971   1.816   1.768   1.775   1.770   1.826   1.749   1.713   1.694   1.634   1.678   1.611   1.679   1.906   2.003   2.001   2.132   2.194   2.146   1.946   2.062   2.107   2.094   2.043   1.906   1.992   1.829   1.811   1.671   1.587   1.722   1.883   1.867   1.871   1.742   1.740   1.759   1.739
[...]
   161.00    1.111   1.115   1.102   1.138   1.128   1.136   1.114   1.098   1.117   1.179   1.213   1.185   1.108   1.157   1.209   1.215   1.166   1.110   1.080   1.130   1.149   1.155   1.142   1.114   1.159   1.139   1.147   1.142   1.107   1.116   1.064   1.051   1.094   1.135   1.209   1.259   1.238   1.222   1.217   1.279   1.275   1.301   1.258   1.271   1.264   1.270   1.223   1.187   1.213   1.224   1.224   1.217   1.173   1.200   1.154   1.139   1.151   1.188   1.188   1.189   1.224   1.266   1.255   1.239   1.246   1.237   1.169   1.235   1.235   1.201   1.206   1.184   1.179
   156.00    1.109   1.132   1.143   1.180   1.173   1.107   1.124   1.135   1.114   1.155   1.114   1.162   1.207   1.179   1.148   1.154   1.200   1.129   1.128   1.131   1.121   1.109   1.100   1.114   1.158   1.127   1.161   1.107   1.108   1.120   1.136   1.122   1.122   1.157   1.189   1.269   1.274   1.284   1.225   1.256   1.277   1.242   1.230   1.225   1.243   1.269   1.261   1.202   1.238   1.227   1.241   1.218   1.164   1.153   1.152   1.160   1.169   1.173   1.177   1.165   1.237   1.284   1.242   1.233   1.233   1.194   1.176   1.157   1.220   1.230   1.191   1.180   1.220
   151.00    1.187   1.116   1.122   1.133   1.153   1.128   1.085   1.147   1.056   1.125   1.142   1.137   1.160   1.179   1.211   1.151   1.137   1.121   1.116   1.115   1.105   1.088   1.120   1.154   1.164   1.102   1.110   1.106   1.105   1.137   1.139   1.097   1.160   1.127   1.216   1.221   1.261   1.250   1.246   1.317   1.283   1.224   1.276   1.246   1.261   1.225   1.192   1.154   1.211   1.160   1.173   1.181   1.155   1.130   1.120   1.163   1.194   1.184   1.161   1.184   1.194   1.192   1.183   1.219   1.233   1.241   1.205   1.196   1.183   1.178   1.177   1.187   1.214
   146.00    1.148   1.155   1.128   1.124   1.143   1.135   1.135   1.084   1.095   1.131   1.080   1.116   1.118   1.170   1.182   1.172   1.162   1.111   1.128   1.111   1.104   1.126   1.157   1.183   1.140   1.087   1.073   1.125   1.154   1.167   1.171   1.174   1.175   1.151   1.208   1.216   1.258   1.259   1.271   1.243   1.249   1.199   1.261   1.236   1.186   1.186   1.173   1.159   1.168   1.181   1.169   1.209   1.183   1.150   1.147   1.190   1.200   1.166   1.153   1.192   1.207   1.204   1.145   1.213   1.205   1.228   1.245   1.214   1.187   1.135   1.172   1.176   1.194
   141.00    1.184   1.120   1.120   1.136   1.153   1.139   1.169   1.164   1.113   1.118   1.116   1.112   1.114   1.147   1.142   1.132   1.117   1.120   1.129   1.124   1.100   1.101   1.148   1.174   1.119   1.158   1.095   1.132   1.163   1.206   1.220   1.199   1.154   1.169   1.226   1.225   1.257   1.287   1.290   1.243   1.211   1.203   1.219   1.249   1.187   1.164   1.144   1.161   1.120   1.155   1.165   1.243   1.205   1.178   1.141   1.172   1.209   1.139   1.200   1.196   1.186   1.179   1.223   1.223   1.211   1.198   1.205   1.191   1.225   1.192   1.181   1.164   1.183
   136.00    1.203   1.154   1.153   1.117   1.143   1.146   1.166   1.105   1.119   1.141   1.119   1.124   1.131   1.090   1.122   1.166   1.170   1.112   1.115   1.136   1.103   1.112   1.156   1.180   1.181   1.181   1.148   1.143   1.168   1.212   1.167   1.163   1.188   1.185   1.210   1.255   1.282   1.289   1.268   1.273   1.196   1.205   1.213   1.195   1.204   1.174   1.169   1.197   1.175   1.172   1.172   1.237   1.259   1.158   1.165   1.193   1.235   1.188   1.189   1.181   1.168   1.161   1.173   1.196   1.165   1.181   1.185   1.165   1.159   1.164   1.177   1.182   1.188
   131.00    1.185   1.124   1.126   1.137   1.218   1.194   1.217   1.186   1.164   1.126   1.109   1.122   1.153   1.128   1.154   1.133   1.127   1.092   1.104   1.143   1.139   1.108   1.129   1.158   1.149   1.147   1.197   1.224   1.169   1.218   1.188   1.208   1.178   1.197   1.241   1.263   1.220   1.253   1.232   1.227   1.155   1.158   1.209   1.190   1.140   1.158   1.169   1.132   1.171   1.146   1.180   1.223   1.218   1.239   1.188   1.200   1.185   1.167   1.156   1.201   1.151   1.140   1.147   1.119   1.128   1.156   1.138   1.164   1.189   1.169   1.197   1.189   1.197
   126.00    1.128   1.139   1.144   1.125   1.142   1.144   1.159   1.180   1.168   1.129   1.093   1.121   1.158   1.166   1.190   1.181   1.156   1.115   1.135   1.133   1.166   1.095   1.092   1.127   1.189   1.201   1.227   1.252   1.207   1.254   1.234   1.213   1.172   1.215   1.234   1.239   1.207   1.288   1.298   1.235   1.166   1.150   1.193   1.202   1.172   1.143   1.134   1.176   1.182   1.184   1.209   1.239   1.223   1.199   1.192   1.159   1.179   1.220   1.163   1.139   1.118   1.128   1.120   1.114   1.111   1.138   1.121   1.106   1.151   1.153   1.187   1.182   1.152
   121.00    1.110   1.082   1.127   1.120   1.140   1.120   1.120   1.136   1.155   1.093   1.093   1.121   1.163   1.213   1.202   1.153   1.183   1.127   1.158   1.169   1.173   1.110   1.116   1.148   1.178   1.197   1.201   1.191   1.207   1.234   1.226   1.218   1.183   1.178   1.206   1.173   1.161   1.228   1.275   1.230   1.141   1.136   1.173   1.207   1.205   1.219   1.174   1.204   1.211   1.182   1.148   1.181   1.168   1.215   1.204   1.123   1.170   1.159   1.202   1.155   1.136   1.143   1.134   1.120   1.126   1.149   1.105   1.121   1.131   1.183   1.191   1.192   1.186
   116.00    1.114   1.108   1.077   1.129   1.140   1.152   1.109   1.088   1.139   1.132   1.084   1.109   1.163   1.197   1.204   1.168   1.149   1.156   1.115   1.136   1.149   1.142   1.154   1.138   1.157   1.228   1.180   1.175   1.180   1.206   1.191   1.175   1.138   1.132   1.176   1.176   1.178   1.221   1.241   1.214   1.156   1.129   1.187   1.230   1.223   1.169   1.139   1.170   1.187   1.202   1.172   1.133   1.167   1.246   1.192   1.141   1.155   1.160   1.205   1.173   1.132   1.140   1.131   1.144   1.122   1.120   1.119   1.111   1.149   1.135   1.158   1.162   1.174
   111.00    1.179   1.149   1.136   1.120   1.126   1.159   1.133   1.121   1.120   1.085   1.087   1.072   1.156   1.241   1.156   1.180   1.175   1.166   1.131   1.132   1.126   1.065   1.116   1.123   1.180   1.194   1.176   1.195   1.157   1.177   1.177   1.142   1.108   1.182   1.170   1.167   1.182   1.138   1.199   1.174   1.177   1.187   1.201   1.195   1.217   1.231   1.199   1.191   1.202   1.171   1.154   1.133   1.128   1.185   1.229   1.186   1.153   1.126   1.182   1.181   1.131   1.111   1.121   1.116   1.084   1.064   1.075   1.109   1.139   1.138   1.137   1.147   1.184
   106.00    1.167   1.126   1.104   1.133   1.162   1.175   1.186   1.168   1.155   1.117   1.103   1.137   1.164   1.208   1.197   1.141   1.180   1.132   1.127   1.160   1.115   1.096   1.119   1.114   1.168   1.189   1.141   1.145   1.176   1.184   1.159   1.150   1.133   1.183   1.203   1.202   1.170   1.147   1.173   1.160   1.182   1.187   1.200   1.224   1.187   1.202   1.174   1.173   1.203   1.215   1.193   1.159   1.195   1.192   1.223   1.231   1.164   1.155   1.108   1.098   1.073   1.109   1.123   1.105   1.120   1.098   1.076   1.153   1.142   1.155   1.195   1.169   1.169
   101.00    1.193   1.156   1.137   1.126   1.185   1.170   1.196   1.162   1.170   1.144   1.096   1.092   1.164   1.171   1.166   1.180   1.152   1.146   1.170   1.141   1.122   1.138   1.135   1.153   1.160   1.182   1.133   1.205   1.188   1.144   1.136   1.142   1.135   1.230   1.203   1.185   1.209   1.202   1.198   1.185   1.175   1.155   1.201   1.231   1.213   1.183   1.206   1.197   1.203   1.195   1.182   1.146   1.172   1.135   1.175   1.185   1.153   1.121   1.103   1.143   1.144   1.090   1.107   1.136   1.138   1.154   1.117   1.142   1.154   1.198   1.191   1.179   1.200
    96.00    1.220   1.176   1.163   1.200   1.237   1.227   1.229   1.181   1.158   1.115   1.096   1.060   1.100   1.156   1.179   1.159   1.162   1.144   1.163   1.189   1.156   1.156   1.160   1.139   1.186   1.170   1.189   1.240   1.196   1.160   1.194   1.118   1.113   1.217   1.226   1.215   1.212   1.224   1.251   1.271   1.243   1.210   1.218   1.212   1.224   1.194   1.238   1.193   1.206   1.150   1.146   1.163   1.171   1.184   1.192   1.175   1.175   1.153   1.146   1.172   1.131   1.123   1.132   1.157   1.194   1.165   1.218   1.166   1.176   1.168   1.195   1.143   1.175
    91.00    1.241   1.220   1.202   1.214   1.266   1.317   1.258   1.156   1.104   1.063   1.100   1.110   1.132   1.147   1.194   1.210   1.182   1.183   1.180   1.163   1.183   1.170   1.164   1.138   1.167   1.241   1.269   1.219   1.208   1.178   1.129   1.158   1.117   1.204   1.226   1.253   1.226   1.243   1.244   1.274   1.226   1.168   1.193   1.246   1.212   1.196   1.190   1.181   1.186   1.226   1.166   1.171   1.149   1.174   1.155   1.178   1.195   1.192   1.162   1.176   1.164   1.157   1.155   1.150   1.157   1.117   1.132   1.154   1.167   1.154   1.174   1.184   1.216
    86.00    1.267   1.248   1.216   1.204   1.285   1.316   1.266   1.177   1.118   1.122   1.138   1.101   1.126   1.100   1.205   1.260   1.223   1.213   1.174   1.184   1.192   1.117   1.137   1.158   1.172   1.224   1.282   1.198   1.183   1.160   1.142   1.133   1.126   1.163   1.199   1.216   1.254   1.246   1.247   1.275   1.221   1.179   1.234   1.199   1.208   1.151   1.163   1.155   1.154   1.174   1.149   1.149   1.144   1.188   1.201   1.206   1.176   1.130   1.165   1.181   1.177   1.187   1.186   1.182   1.164   1.148   1.135   1.176   1.178   1.204   1.172   1.143   1.194
    81.00    1.235   1.197   1.254   1.220   1.246   1.287   1.236   1.224   1.196   1.138   1.113   1.121   1.106   1.130   1.198   1.231   1.213   1.222   1.194   1.149   1.113   1.120   1.125   1.218   1.231   1.244   1.270   1.237   1.162   1.146   1.119   1.163   1.194   1.219   1.215   1.241   1.319   1.261   1.254   1.268   1.252   1.214   1.192   1.224   1.243   1.204   1.129   1.129   1.171   1.148   1.168   1.131   1.141   1.170   1.167   1.188   1.175   1.123   1.174   1.207   1.194   1.157   1.129   1.160   1.178   1.188   1.167   1.181   1.164   1.181   1.204   1.197   1.202
    76.00    1.223   1.198   1.199   1.257   1.249   1.259   1.220   1.231   1.218   1.192   1.159   1.158   1.165   1.178   1.190   1.169   1.232   1.200   1.155   1.133   1.118   1.135   1.154   1.201   1.240   1.224   1.186   1.180   1.215   1.144   1.152   1.205   1.269   1.292   1.271   1.264   1.306   1.310   1.268   1.262   1.262   1.211   1.225   1.245   1.238   1.232   1.201   1.163   1.121   1.159   1.146   1.147   1.156   1.136   1.145   1.163   1.150   1.132   1.165   1.165   1.199   1.201   1.172   1.194   1.153   1.191   1.154   1.178   1.173   1.157   1.189   1.171   1.148
    71.00    1.211   1.175   1.197   1.201   1.235   1.214   1.199   1.240   1.195   1.142   1.187   1.174   1.203   1.193   1.193   1.163   1.190   1.214   1.205   1.157   1.123   1.149   1.189   1.227   1.208   1.203   1.193   1.185   1.184   1.200   1.242   1.250   1.269   1.253   1.271   1.307   1.276   1.252   1.280   1.250   1.200   1.182   1.253   1.229   1.228   1.215   1.200   1.189   1.156   1.156   1.091   1.145   1.150   1.150   1.170   1.142   1.153   1.164   1.178   1.209   1.201   1.217   1.219   1.227   1.206   1.206   1.169   1.131   1.145   1.151   1.209   1.202   1.114
    66.00    1.158   1.188   1.160   1.185   1.181   1.216   1.205   1.218   1.163   1.173   1.200   1.179   1.220   1.196   1.169   1.143   1.187   1.181   1.196   1.125   1.178   1.177   1.163   1.184   1.211   1.183   1.203   1.220   1.162   1.180   1.169   1.222   1.228   1.230   1.246   1.225   1.281   1.261   1.292   1.222   1.224   1.232   1.239   1.204   1.175   1.189   1.190   1.195   1.178   1.089   1.142   1.150   1.138   1.152   1.182   1.213   1.240   1.180   1.208   1.216   1.240   1.217   1.209   1.220   1.224   1.219   1.136   1.125   1.145   1.158   1.175   1.178   1.149
    61.00    1.200   1.204   1.210   1.165   1.157   1.181   1.175   1.133   1.154   1.164   1.216   1.148   1.147   1.170   1.153   1.135   1.134   1.159   1.125   1.120   1.138   1.150   1.191   1.185   1.195   1.170   1.198   1.211   1.214   1.196   1.187   1.227   1.224   1.221   1.180   1.181   1.195   1.226   1.260   1.225   1.265   1.281   1.210   1.164   1.163   1.188   1.167   1.186   1.177   1.153   1.176   1.196   1.191   1.179   1.199   1.219   1.270   1.232   1.213   1.194   1.206   1.178   1.166   1.189   1.223   1.215   1.157   1.144   1.180   1.180   1.169   1.150   1.192
    56.00    1.142   1.132   1.162   1.145   1.149   1.143   1.198   1.173   1.141   1.131   1.154   1.160   1.134   1.154   1.159   1.139   1.136   1.146   1.153   1.150   1.137   1.186   1.206   1.206   1.139   1.099   1.155   1.177   1.195   1.148   1.189   1.156   1.168   1.209   1.210   1.209   1.280   1.225   1.247   1.261   1.288   1.249   1.199   1.199   1.147   1.174   1.221   1.254   1.212   1.176   1.175   1.246   1.232   1.201   1.251   1.227   1.248   1.276   1.223   1.190   1.187   1.183   1.185   1.210   1.235   1.258   1.225   1.226   1.188   1.152   1.163   1.166   1.195
    51.00    1.122   1.107   1.112   1.162   1.181   1.158   1.167   1.176   1.175   1.174   1.173   1.178   1.155   1.181   1.200   1.200   1.199   1.159   1.209   1.214   1.163   1.156   1.179   1.167   1.161   1.129   1.152   1.126   1.144   1.165   1.148   1.157   1.165   1.154   1.210   1.252   1.268   1.262   1.259   1.270   1.254   1.241   1.197   1.135   1.138   1.226   1.252   1.210   1.220   1.232   1.198   1.191   1.250   1.229   1.272   1.207   1.219   1.244   1.192   1.201   1.205   1.211   1.183   1.243   1.315   1.265   1.239   1.206   1.137   1.145   1.163   1.153   1.141
    46.00    1.120   1.139   1.138   1.137   1.149   1.135   1.210   1.199   1.180   1.208   1.195   1.182   1.144   1.187   1.167   1.183   1.147   1.197   1.170   1.179   1.151   1.158   1.159   1.154   1.162   1.152   1.145   1.124   1.176   1.145   1.133   1.186   1.150   1.209   1.222   1.207   1.233   1.204   1.232   1.266   1.240   1.224   1.201   1.176   1.142   1.195   1.217   1.256   1.230   1.164   1.179   1.192   1.212   1.228   1.287   1.214   1.155   1.187   1.208   1.185   1.209   1.277   1.234   1.264   1.269   1.313   1.258   1.206   1.146   1.151   1.171   1.172   1.136
    41.00    1.106   1.126   1.119   1.124   1.124   1.162   1.220   1.227   1.174   1.210   1.176   1.162   1.182   1.176   1.174   1.149   1.160   1.149   1.188   1.233   1.207   1.207   1.155   1.148   1.169   1.110   1.101   1.122   1.162   1.151   1.166   1.146   1.125   1.192   1.234   1.212   1.217   1.186   1.220   1.230   1.216   1.205   1.185   1.219   1.193   1.154   1.193   1.225   1.198   1.144   1.135   1.128   1.184   1.225   1.223   1.186   1.165   1.183   1.162   1.179   1.246   1.256   1.296   1.273   1.285   1.279   1.286   1.221   1.218   1.226   1.255   1.228   1.182
    36.00    1.139   1.132   1.160   1.117   1.118   1.187   1.213   1.206   1.191   1.179   1.125   1.141   1.170   1.173   1.165   1.185   1.174   1.147   1.179   1.219   1.232   1.223   1.182   1.173   1.165   1.166   1.108   1.126   1.187   1.167   1.173   1.166   1.138   1.201   1.237   1.202   1.199   1.189   1.200   1.212   1.208   1.176   1.166   1.137   1.192   1.218   1.204   1.253   1.183   1.195   1.147   1.130   1.165   1.192   1.135   1.198   1.176   1.154   1.140   1.224   1.228   1.248   1.285   1.306   1.326   1.339   1.316   1.316   1.314   1.294   1.208   1.223   1.208
    31.00    1.167   1.146   1.153   1.166   1.170   1.197   1.196   1.184   1.205   1.137   1.107   1.133   1.146   1.128   1.186   1.166   1.162   1.168   1.159   1.186   1.176   1.177   1.192   1.165   1.132   1.183   1.130   1.117   1.149   1.171   1.135   1.149   1.139   1.180   1.182   1.204   1.203   1.190   1.222   1.199   1.172   1.195   1.138   1.145   1.194   1.189   1.224   1.232   1.194   1.161   1.146   1.162   1.191   1.171   1.125   1.135   1.138   1.132   1.138   1.173   1.187   1.255   1.287   1.322   1.364   1.377   1.320   1.306   1.274   1.269   1.229   1.208   1.218
    26.00    1.154   1.145   1.162   1.132   1.217   1.289   1.209   1.177   1.124   1.141   1.113   1.104   1.157   1.169   1.145   1.194   1.143   1.149   1.206   1.209   1.122   1.146   1.131   1.164   1.175   1.158   1.170   1.140   1.181   1.145   1.116   1.138   1.156   1.202   1.183   1.175   1.173   1.207   1.234   1.234   1.211   1.147   1.144   1.133   1.164   1.124   1.174   1.212   1.171   1.155   1.159   1.146   1.164   1.136   1.131   1.139   1.125   1.101   1.129   1.161   1.183   1.210   1.302   1.337   1.360   1.320   1.350   1.313   1.239   1.232   1.230   1.221   1.171
    21.00    1.124   1.151   1.172   1.188   1.202   1.239   1.202   1.183   1.175   1.168   1.190   1.160   1.152   1.169   1.179   1.182   1.187   1.180   1.188   1.197   1.208   1.175   1.138   1.153   1.133   1.121   1.185   1.141   1.148   1.128   1.126   1.124   1.118   1.137   1.182   1.139   1.179   1.162   1.212   1.183   1.198   1.149   1.101   1.130   1.125   1.169   1.182   1.159   1.100   1.127   1.188   1.167   1.144   1.127   1.110   1.111   1.061   1.091   1.095   1.129   1.230   1.241   1.250   1.293   1.305   1.300   1.278   1.330   1.265   1.249   1.203   1.212   1.236
    16.00    1.146   1.127   1.162   1.234   1.270   1.199   1.186   1.174   1.159   1.190   1.186   1.193   1.180   1.164   1.129   1.191   1.153   1.161   1.189   1.202   1.243   1.168   1.188   1.187   1.147   1.131   1.147   1.127   1.171   1.129   1.122   1.104   1.124   1.147   1.167   1.170   1.143   1.155   1.160   1.159   1.136   1.160   1.121   1.149   1.158   1.169   1.140   1.108   1.165   1.139   1.195   1.171   1.131   1.126   1.058   1.090   1.093   1.071   1.092   1.158   1.232   1.299   1.247   1.299   1.301   1.322   1.316   1.264   1.206   1.214   1.230   1.198   1.214
    11.00    1.134   1.142   1.187   1.251   1.243   1.167   1.122   1.147   1.152   1.130   1.168   1.143   1.147   1.131   1.114   1.151   1.143   1.193   1.178   1.178   1.168   1.199   1.216   1.187   1.183   1.165   1.117   1.178   1.146   1.127   1.141   1.131   1.157   1.119   1.162   1.173   1.217   1.198   1.181   1.148   1.091   1.112   1.109   1.114   1.096   1.133   1.111   1.150   1.150   1.164   1.182   1.175   1.143   1.135   1.087   1.098   1.106   1.118   1.135   1.174   1.228   1.219   1.234   1.240   1.209   1.233   1.293   1.237   1.221   1.217   1.209   1.258   1.194
     6.00    1.162   1.153   1.205   1.245   1.186   1.171   1.159   1.134   1.135   1.150   1.177   1.103   1.114   1.152   1.138   1.093   1.114   1.180   1.154   1.198   1.174   1.168   1.125   1.155   1.171   1.139   1.121   1.108   1.114   1.123   1.136   1.114   1.138   1.162   1.162   1.209   1.197   1.184   1.191   1.116   1.131   1.132   1.110   1.095   1.108   1.123   1.108   1.122   1.155   1.184   1.189   1.147   1.158   1.130   1.108   1.115   1.111   1.119   1.152   1.127   1.193   1.201   1.197   1.265   1.324   1.338   1.286   1.225   1.263   1.239   1.178   1.199   1.183
     1.00    1.162   1.139   1.210   1.185   1.165   1.158   1.155   1.142   1.157   1.151   1.158   1.166   1.131   1.165   1.107   1.151   1.159   1.142   1.157   1.175   1.187   1.182   1.134   1.149   1.210   1.161   1.102   1.096   1.084   1.071   1.107   1.140   1.152   1.151   1.159   1.187   1.195   1.143   1.174   1.149   1.099   1.093   1.088   1.125   1.122   1.100   1.098   1.143   1.141   1.174   1.162   1.176   1.171   1.146   1.130   1.140   1.140   1.160   1.166   1.147   1.184   1.190   1.154   1.213   1.270   1.260   1.232   1.257   1.282   1.244   1.230   1.198   1.133

   Mean standard deviation across all grid points:
      u component:    2.197 m/s
      v component:    1.788 m/s
      w component:    1.178 m/s


U-component (X) statistics from the interpolated hub point:

   Mean =  11.6748 m/s
   TI   =  20.9036 %


Processing complete.  10984 CPU seconds used.
