
This summary file was generated by TurbSim (from OpenFAST-v3.3.0) on 09-Jan-2023 at 13:47:40.


Runtime Options:

         1  Random seed #1
         4  Random seed #2
         F  Output binary HH turbulence parameters?
         F  Output formatted turbulence parameters?
         F  Output AeroDyn HH files?
         T  Output AeroDyn FF files?
         F  Output BLADED FF files?
         F  Output tower data?
         F  Output HAWC FF files?
         F  Output formatted FF files?
         T  Output coherent turbulence time step file?
 0 -  NONE  IEC turbulence models scaled to exact specified standard deviation


Turbine/Model Specifications:

        61  Vertical grid-point matrix dimension
        73  Horizontal grid-point matrix dimension
     0.100  Time step [seconds]
   600.000  Analysis time [seconds]
   600.000  Usable output time [seconds]
   151.000  Hub height [m]
   300.000  Grid height [m]
   360.000  Grid width [m]
     0.000  Vertical flow angle [degrees]
     0.000  Horizontal flow angle [degrees]


Meteorological Boundary Conditions:

    TIMESR  User-input time series spectral model
       N/A  IEC standard
       N/A  IEC turbulence characteristic
       N/A  IEC turbulence type
       N/A  IEC Extreme Turbulence Model (ETM) "c" parameter [m/s]
       PL   Wind profile type
   119.000  Reference height [m]
    11.400  Reference wind speed [m/s]
       N/A  Jet height [m]
     0.100  Power law exponent
     0.030  Surface roughness length [m]


Non-IEC Meteorological Boundary Conditions:

    45.000  Site latitude [degrees]
     0.050  Gradient Richardson number
     0.529  Friction or shear velocity [m/s]
       N/A  Mixing layer depth [m]
       N/A  Mean hub u'w' Reynolds stress
       N/A  Mean hub u'v' Reynolds stress
       N/A  Mean hub v'w' Reynolds stress


Spatial Coherence Models:

       IEC  u-component coherence model
       IEC  v-component coherence model
       IEC  w-component coherence model
(   12.000, 0.659E-03)  u-component coherence parameters
(   12.000, 0.659E-03)  v-component coherence parameters
(   12.000, 0.659E-03)  w-component coherence parameters
       N/A  Coherence exponent


Coherent Turbulence Scaling Parameters:

.\EventData
            Name of the path containing the coherent turbulence data files
       dns  Type of coherent turbulence data files
     0.500  Disturbance scale (ratio of wave height to rotor diameter)
     0.500  Fractional location of tower centerline from right
     0.000  Fractional location of hub height from the bottom of the dataset
    30.000  Minimum start time for coherent structures [seconds]


Profiles from User-Defined Time-Series Input:

  Height   Wind Speed   Horizontal Angle   Vertical Angle
   (m)        (m/s)          (deg)              (deg)    
  ------   ----------   ----------------   --------------
  119.00      11.47          -0.00               -0.00


You have requested that the following file(s) be generated:

   HighT5.bts (AeroDyn/TurbSim full-field wind file)


Turbulence Simulation Scaling Parameter Summary:

   Turbulence model used                            =  User-input time series
   Gradient Richardson number                       =    0.050
   Monin-Obukhov (M-O) z/L parameter                =    0.067
   Monin-Obukhov (M-O) length scale                 = 2265.000 m
   Mean wind speed at hub height                    =   11.675 m/s

   Wind profile type                                =  Power law
   Power law exponent                               =    0.100
   Mean shear across rotor disk                     =    0.018 (m/s)/m
   Assumed rotor diameter                           =  300.000 m
   Surface roughness length                         =    0.030 m

   Nyquist frequency of turbulent wind field        =    5.000 Hz

   Number of time steps in the FFT                  =     6000
   Number of time steps output                      =     6000
   Number of points simulated                       =     4454


Mean Flow Angles:

   Vertical   =   0.0 degrees
   Horizontal =   0.0 degrees

Mean Wind Speed Profile:

   Height    Wind Speed   Horizontal Angle  Vertical Angle  U-comp (X)   V-comp (Y)   W-comp (Z)
     (m)        (m/s)         (degrees)       (degrees)       (m/s)        (m/s)        (m/s)   
   ------    ----------   ----------------  --------------  ----------   ----------   ----------
    301.0       12.51            0.00            0.00         12.51         0.00         0.00
    296.0       12.49            0.00            0.00         12.49         0.00         0.00
    291.0       12.47            0.00            0.00         12.47         0.00         0.00
    286.0       12.44            0.00            0.00         12.44         0.00         0.00
    281.0       12.42            0.00            0.00         12.42         0.00         0.00
    276.0       12.40            0.00            0.00         12.40         0.00         0.00
    271.0       12.38            0.00            0.00         12.38         0.00         0.00
    266.0       12.35            0.00            0.00         12.35         0.00         0.00
    261.0       12.33            0.00            0.00         12.33         0.00         0.00
    256.0       12.31            0.00            0.00         12.31         0.00         0.00
    251.0       12.28            0.00            0.00         12.28         0.00         0.00
    246.0       12.26            0.00            0.00         12.26         0.00         0.00
    241.0       12.23            0.00            0.00         12.23         0.00         0.00
    236.0       12.21            0.00            0.00         12.21         0.00         0.00
    231.0       12.18            0.00            0.00         12.18         0.00         0.00
    226.0       12.16            0.00            0.00         12.16         0.00         0.00
    221.0       12.13            0.00            0.00         12.13         0.00         0.00
    216.0       12.10            0.00            0.00         12.10         0.00         0.00
    211.0       12.07            0.00            0.00         12.07         0.00         0.00
    206.0       12.04            0.00            0.00         12.04         0.00         0.00
    201.0       12.01            0.00            0.00         12.01         0.00         0.00
    196.0       11.98            0.00            0.00         11.98         0.00         0.00
    191.0       11.95            0.00            0.00         11.95         0.00         0.00
    186.0       11.92            0.00            0.00         11.92         0.00         0.00
    181.0       11.89            0.00            0.00         11.89         0.00         0.00
    176.0       11.85            0.00            0.00         11.85         0.00         0.00
    171.0       11.82            0.00            0.00         11.82         0.00         0.00
    166.0       11.79            0.00            0.00         11.79         0.00         0.00
    161.0       11.75            0.00            0.00         11.75         0.00         0.00
    156.0       11.71            0.00            0.00         11.71         0.00         0.00
    151.0       11.67            0.00            0.00         11.67         0.00         0.00
    146.0       11.64            0.00            0.00         11.64         0.00         0.00
    141.0       11.60            0.00            0.00         11.60         0.00         0.00
    136.0       11.55            0.00            0.00         11.55         0.00         0.00
    131.0       11.51            0.00            0.00         11.51         0.00         0.00
    126.0       11.47            0.00            0.00         11.47         0.00         0.00
    121.0       11.42            0.00            0.00         11.42         0.00         0.00
    116.0       11.37            0.00            0.00         11.37         0.00         0.00
    111.0       11.32            0.00            0.00         11.32         0.00         0.00
    106.0       11.27            0.00            0.00         11.27         0.00         0.00
    101.0       11.21            0.00            0.00         11.21         0.00         0.00
     96.0       11.16            0.00            0.00         11.16         0.00         0.00
     91.0       11.10            0.00            0.00         11.10         0.00         0.00
     86.0       11.04            0.00            0.00         11.04         0.00         0.00
     81.0       10.97            0.00            0.00         10.97         0.00         0.00
     76.0       10.90            0.00            0.00         10.90         0.00         0.00
     71.0       10.83            0.00            0.00         10.83         0.00         0.00
     66.0       10.75            0.00            0.00         10.75         0.00         0.00
     61.0       10.66            0.00            0.00         10.66         0.00         0.00
     56.0       10.57            0.00            0.00         10.57         0.00         0.00
     51.0       10.47            0.00            0.00         10.47         0.00         0.00
     46.0       10.37            0.00            0.00         10.37         0.00         0.00
     41.0       10.25            0.00            0.00         10.25         0.00         0.00
     36.0       10.12            0.00            0.00         10.12         0.00         0.00
     31.0        9.97            0.00            0.00          9.97         0.00         0.00
     26.0        9.79            0.00            0.00          9.79         0.00         0.00
     21.0        9.58            0.00            0.00          9.58         0.00         0.00
     16.0        9.33            0.00            0.00          9.33         0.00         0.00
     11.0        8.98            0.00            0.00          8.98         0.00         0.00
      6.0        8.46            0.00            0.00          8.46         0.00         0.00
      1.0        7.07            0.00            0.00          7.07         0.00         0.00


Harvested Random Seeds after Generation of the Random Numbers:

   2107445636 Harvested seed # 1
   1816932106 Harvested seed # 2


Hub-Height Simulated Turbulence Statistical Summary:

   Type of Wind        Min (m/s)   Mean (m/s)    Max (m/s)  Sigma (m/s)       TI (%)
   ----------------    ---------   ----------    ---------  -----------       ------
   Longitudinal (u)         4.17        11.67        17.56        2.041       17.483
   Lateral (v)             -5.67        -0.00         5.93        1.843       15.785
   Vertical (w)            -4.20        -0.00         3.25        1.134        9.714
   U component              4.17        11.67        17.56        2.041       17.483
   V component             -5.67        -0.00         5.93        1.843       15.785
   W component             -4.20        -0.00         3.25        1.134        9.714
   Horizontal (U&V)         4.19        11.82        17.60        2.028       17.152
   Total                    4.22        11.88        17.61        2.021       17.014

                       Min Reynolds     Mean Reynolds    Max Reynolds    Correlation
   Product             Stress (m/s)^2   Stress (m/s)^2   Stress (m/s)^2  Coefficient
   ----------------    --------------   --------------   --------------  -----------
   u'w'                    -13.018             0.161            11.279         0.070
   u'v'                    -22.853             0.143            19.938         0.038
   v'w'                    -18.068             0.019            10.943         0.009


   Friction Velocity (Ustar)  =      0.401 m/s
   Maximum Instantaneous TKE  =     29.050 (m/s)^2
   Maximum Instantaneous CTKE =     12.092 (m/s)^2


Grid Point Variance Summary:

   Y-coord -180.00 -175.00 -170.00 -165.00 -160.00 -155.00 -150.00 -145.00 -140.00 -135.00 -130.00 -125.00 -120.00 -115.00 -110.00 -105.00 -100.00  -95.00  -90.00  -85.00  -80.00  -75.00  -70.00  -65.00  -60.00  -55.00  -50.00  -45.00  -40.00  -35.00  -30.00  -25.00  -20.00  -15.00  -10.00   -5.00    0.00    5.00   10.00   15.00   20.00   25.00   30.00   35.00   40.00   45.00   50.00   55.00   60.00   65.00   70.00   75.00   80.00   85.00   90.00   95.00  100.00  105.00  110.00  115.00  120.00  125.00  130.00  135.00  140.00  145.00  150.00  155.00  160.00  165.00  170.00  175.00  180.00

   Height   Standard deviation at grid points for the u component:
   301.00    2.313   2.136   2.174   2.238   2.046   1.945   2.071   1.969   2.035   2.180   2.222   2.250   2.131   2.147   2.061   2.104   2.046   2.023   1.990   2.046   1.928   2.010   2.082   2.007   1.998   2.026   1.940   2.089   2.041   1.936   2.004   1.940   1.888   1.812   1.801   1.798   1.630   1.614   1.614   1.681   1.737   1.643   1.812   1.853   1.978   2.084   2.018   2.073   2.046   1.971   2.085   2.133   2.033   2.104   2.208   2.291   2.236   2.214   2.153   2.302   2.416   2.290   2.192   2.318   2.030   2.104   2.076   2.161   2.155   2.272   2.223   2.233   2.005
   296.00    2.339   2.291   2.204   2.208   2.056   2.064   1.966   1.819   2.004   2.059   2.159   2.306   2.189   2.212   2.120   2.058   1.815   1.840   1.891   1.955   1.870   1.918   2.003   2.021   1.968   2.059   2.150   2.007   2.129   1.945   1.898   2.072   1.878   2.017   1.882   1.781   1.695   1.571   1.565   1.701   1.909   1.912   1.963   1.930   1.916   2.017   2.125   2.066   2.039   1.938   1.841   1.716   1.860   2.094   2.248   2.231   2.157   2.143   2.142   2.243   2.259   2.255   2.309   2.213   2.107   2.047   2.081   2.128   2.170   2.199   2.024   2.135   2.042
   291.00    2.189   2.315   2.173   2.257   2.096   2.018   2.077   1.955   1.879   2.025   2.161   2.126   2.030   2.107   2.039   1.979   1.982   1.800   1.768   1.782   1.714   1.797   1.939   2.042   2.017   2.216   2.198   2.034   2.011   1.931   2.213   2.317   2.014   1.886   1.903   1.693   1.705   1.625   1.676   1.727   1.840   1.908   2.133   1.923   1.995   1.983   2.169   2.150   2.031   2.016   1.734   1.864   1.947   2.091   2.165   2.242   2.243   2.042   2.041   2.114   2.182   1.957   2.061   2.102   2.046   2.097   2.144   2.129   2.086   2.042   2.073   2.173   2.112
   286.00    2.091   1.991   2.114   2.057   1.984   2.164   2.069   1.847   1.763   1.921   2.122   2.150   1.921   2.020   2.021   1.946   1.884   1.827   1.602   1.690   1.711   1.917   1.922   1.915   2.036   2.344   2.409   2.331   2.386   2.338   2.285   2.282   2.086   1.872   1.784   1.806   1.760   1.702   1.865   1.905   1.872   2.040   1.974   2.110   2.101   1.962   2.103   2.232   2.010   1.920   1.795   1.853   1.942   2.060   2.099   2.030   2.128   2.032   2.104   2.085   2.099   1.889   1.985   1.961   2.060   2.016   2.024   2.093   1.974   2.111   2.092   2.160   2.160
   281.00    2.172   2.189   2.032   1.839   1.964   1.946   2.094   1.944   1.807   2.011   2.179   2.220   2.212   2.023   1.983   2.009   1.965   1.833   1.705   1.637   1.702   1.872   2.046   2.016   2.071   2.329   2.331   2.220   2.253   2.202   2.212   2.383   2.279   2.088   1.902   1.864   1.957   1.898   1.956   1.986   1.743   1.829   1.941   1.979   2.011   2.176   2.079   2.040   1.938   1.876   1.903   1.844   1.880   1.970   1.921   2.055   2.180   2.138   2.129   2.069   2.026   1.983   1.892   2.013   2.091   2.086   2.153   2.103   2.045   2.192   2.084   2.322   2.234
   276.00    2.117   2.112   1.942   1.813   1.911   1.913   1.898   1.934   1.756   1.988   2.026   2.242   2.098   1.926   1.984   1.960   1.944   1.866   1.689   1.723   1.685   1.960   2.030   1.926   2.146   2.219   2.247   2.223   2.184   2.249   2.450   2.481   2.494   2.122   2.076   1.908   1.926   1.947   2.005   1.908   2.004   1.750   1.843   1.833   2.077   2.095   1.930   1.771   1.830   1.847   1.938   1.956   2.022   2.053   1.967   2.070   2.121   2.227   2.136   2.033   1.968   1.930   2.092   2.039   2.075   1.965   2.004   2.053   1.908   2.002   1.973   2.321   2.324
   271.00    2.038   1.907   1.866   1.858   1.970   1.877   1.816   1.963   1.978   2.099   2.123   2.160   2.161   2.200   2.016   2.065   1.899   1.663   1.658   1.673   1.739   1.841   1.930   1.955   2.020   2.120   2.195   2.164   2.142   2.213   2.132   2.247   2.277   2.056   2.196   2.160   2.061   1.938   1.918   1.973   1.944   1.858   1.850   2.144   2.052   2.080   1.929   1.920   1.964   1.941   1.912   2.232   2.240   2.265   2.073   2.115   2.108   2.123   2.146   2.178   1.974   1.941   1.904   2.076   2.049   2.098   2.111   2.144   2.073   2.020   2.024   2.304   2.389
   266.00    1.874   1.834   1.741   1.828   1.883   1.790   1.824   1.911   1.969   2.113   2.025   2.136   2.102   2.171   1.983   2.028   1.960   1.682   1.516   1.725   1.845   1.788   1.902   2.077   1.988   2.061   2.093   2.166   2.044   2.097   1.970   2.026   2.170   2.162   2.346   2.094   2.128   2.095   2.012   1.879   1.943   1.888   2.082   2.194   2.084   2.117   1.992   1.999   2.057   2.013   2.063   2.220   2.281   2.353   2.272   2.085   2.086   2.070   2.229   2.109   1.935   1.937   1.927   1.989   1.949   2.007   2.198   2.197   2.231   2.234   2.164   2.288   2.401
   261.00    1.967   1.903   1.747   1.814   1.741   1.815   1.926   1.881   2.001   2.005   1.971   1.953   1.967   2.019   1.877   1.895   1.816   1.755   1.728   1.709   1.778   1.996   2.127   2.120   2.145   2.221   2.171   2.218   2.157   2.142   2.160   2.125   2.170   2.191   2.224   2.271   2.267   2.014   1.977   1.961   2.029   2.127   2.143   2.218   2.112   2.035   1.991   2.056   2.043   2.085   1.945   2.076   2.207   2.267   2.287   2.169   2.223   2.089   2.092   2.061   2.004   1.939   1.804   1.959   1.871   1.923   2.235   2.108   2.262   2.269   2.369   2.267   2.197
   256.00    1.810   1.793   1.961   1.932   1.913   1.782   1.909   1.965   1.981   1.967   1.967   1.919   1.992   1.947   1.984   1.942   1.749   1.802   1.911   1.844   1.932   2.205   2.150   2.278   2.349   2.326   2.369   2.403   2.176   2.178   2.219   2.254   2.248   2.054   2.051   2.090   2.063   2.169   2.056   1.957   1.999   2.281   2.215   2.311   2.268   2.059   1.997   2.080   2.099   2.061   2.069   2.129   2.148   2.283   2.203   2.340   2.032   1.971   2.107   2.021   2.103   1.976   2.161   2.009   2.041   2.026   2.115   2.243   2.308   2.338   2.388   2.107   2.168
   251.00    1.855   1.882   1.897   1.931   1.992   1.889   1.916   1.916   1.838   1.831   1.848   1.905   1.869   1.823   1.887   1.856   1.858   1.732   1.957   1.983   1.969   2.239   2.363   2.411   2.543   2.514   2.580   2.372   2.100   2.153   2.252   2.214   2.273   2.132   2.106   2.137   2.134   2.126   2.069   1.969   2.040   2.254   2.370   2.360   2.274   2.076   2.030   2.049   1.955   2.043   2.108   2.011   2.125   2.150   2.144   2.251   2.243   2.022   2.021   2.090   2.036   2.030   2.181   1.964   2.037   2.155   2.216   2.285   2.351   2.044   2.184   2.037   2.179
   246.00    1.773   1.871   1.872   1.910   1.907   1.937   1.864   1.732   1.820   1.955   1.954   1.836   1.732   1.784   1.771   1.677   1.748   1.720   1.695   1.941   2.067   2.096   2.443   2.663   2.546   2.506   2.400   2.111   2.221   2.173   2.377   2.291   2.057   2.187   2.207   2.288   2.149   2.124   2.163   1.977   2.175   2.280   2.306   2.239   2.254   2.060   1.963   2.003   1.996   2.039   1.960   2.047   2.017   2.002   1.982   2.105   2.167   2.054   2.063   2.039   2.134   1.901   2.070   2.104   2.086   2.216   2.201   2.307   2.239   2.060   2.098   2.036   2.084
   241.00    1.702   1.791   1.842   1.940   1.904   1.982   1.952   1.812   1.765   1.959   1.878   1.761   1.757   1.720   1.706   1.787   1.742   1.810   1.760   1.956   2.054   2.193   2.424   2.508   2.431   2.398   2.192   2.210   2.194   2.177   2.254   2.290   2.268   2.147   2.189   2.247   2.206   2.143   2.100   2.123   2.199   2.453   2.446   2.464   2.238   2.046   2.016   1.903   2.011   1.973   2.007   1.905   1.970   2.049   2.024   2.015   2.164   2.093   2.003   2.075   2.189   2.088   2.195   2.053   2.120   1.873   2.180   2.159   2.063   2.104   2.154   2.123   2.142
   236.00    1.951   1.880   1.846   1.944   1.979   2.126   1.930   1.920   1.998   1.998   1.908   1.758   1.754   1.837   1.859   1.837   1.906   1.895   1.882   2.001   1.975   2.166   2.437   2.387   2.266   2.251   2.137   2.085   2.048   2.028   2.089   2.275   2.266   2.312   2.270   2.154   2.199   2.334   2.236   2.101   2.311   2.360   2.510   2.491   2.305   2.109   2.022   2.183   2.041   1.982   2.006   1.992   1.966   2.042   2.026   2.038   2.056   2.133   2.127   2.105   2.104   2.346   2.247   1.966   1.973   2.012   2.075   1.896   1.900   2.131   2.206   2.228   2.264
   231.00    2.004   1.907   1.775   1.881   2.111   2.099   1.957   2.049   2.101   2.056   2.007   1.899   1.833   1.852   1.960   1.998   1.928   1.908   1.973   1.962   2.042   2.191   2.372   2.379   2.243   2.122   1.993   2.044   1.978   1.963   2.049   2.102   2.192   2.250   2.215   2.040   2.159   2.202   2.087   2.141   2.213   2.467   2.521   2.576   2.517   2.393   2.262   2.279   2.050   1.977   2.003   1.896   1.929   1.962   2.080   2.133   2.114   2.214   2.171   2.135   2.141   2.353   2.431   2.024   2.005   2.096   2.171   2.121   2.034   1.922   2.178   2.177   2.278
   226.00    2.158   1.971   1.741   1.890   2.196   2.054   2.034   2.130   2.250   2.195   2.016   2.026   1.895   1.907   2.037   2.136   2.243   2.149   2.121   1.966   1.938   2.038   2.340   2.403   2.238   2.208   2.068   1.978   2.053   2.119   2.144   2.217   2.162   2.170   2.266   2.095   2.086   2.084   2.081   2.157   2.225   2.358   2.442   2.384   2.392   2.340   2.183   2.028   2.053   1.992   1.873   1.861   1.867   1.916   1.818   2.049   2.088   2.315   2.202   2.013   2.223   2.279   2.304   2.113   2.012   2.006   2.083   2.188   2.044   2.002   2.118   2.076   2.257
   221.00    2.105   2.007   2.007   2.133   2.192   2.181   2.233   2.136   2.327   2.301   2.127   2.234   2.212   2.025   1.969   2.150   2.355   2.263   2.235   2.260   2.214   2.117   2.215   2.278   2.245   2.137   2.044   2.009   2.139   2.284   2.261   2.260   2.107   2.295   2.299   2.146   2.107   2.091   2.093   1.995   2.186   2.256   2.268   2.295   2.284   2.332   2.144   1.977   1.975   1.955   1.718   1.838   1.749   1.710   1.815   2.082   2.096   2.204   2.108   2.118   2.223   2.210   2.382   2.218   2.046   2.057   1.975   2.081   2.032   1.937   2.045   2.108   2.213
   216.00    2.077   1.847   2.098   2.140   2.129   2.122   1.983   2.129   2.358   2.454   2.330   2.207   2.212   1.928   1.994   2.100   2.124   2.371   2.393   2.372   2.230   2.113   2.048   2.094   2.090   2.064   2.057   2.223   2.150   2.156   2.226   2.227   2.234   2.053   2.056   2.151   2.069   2.024   2.077   2.133   2.051   2.219   2.054   2.122   2.030   2.234   2.129   1.962   1.906   2.040   1.947   1.793   1.758   1.732   2.050   2.072   2.116   2.164   2.238   2.244   2.293   2.165   2.165   2.085   2.034   2.052   1.990   2.049   1.988   1.998   1.970   1.924   2.072
   211.00    2.065   1.983   2.126   2.210   2.173   2.182   2.133   2.238   2.453   2.598   2.492   2.256   2.410   1.992   1.777   1.927   2.209   2.248   2.417   2.250   2.227   2.113   1.959   1.796   2.001   2.052   2.095   2.306   2.139   2.192   2.329   2.266   1.974   2.023   1.978   1.997   2.060   1.978   2.047   1.877   2.098   2.258   2.165   2.223   2.134   2.188   2.155   2.085   2.151   2.042   1.950   1.840   1.822   1.751   2.008   1.870   1.909   2.077   2.317   2.105   2.053   2.111   2.178   2.272   2.189   2.002   2.017   1.963   1.912   1.931   1.779   1.738   1.978
   206.00    1.885   2.067   2.126   2.260   2.153   2.255   2.220   2.107   2.397   2.419   2.316   2.251   2.174   1.912   1.753   1.816   1.977   2.111   2.217   2.106   2.206   2.017   2.131   1.866   2.009   2.213   2.274   2.233   2.325   2.234   2.239   2.276   2.007   1.942   2.009   2.137   2.124   2.013   1.874   2.041   2.117   2.262   2.169   2.171   2.243   2.354   2.107   2.228   2.196   2.253   2.025   1.986   1.883   1.896   1.900   1.705   1.968   2.098   2.124   2.115   2.255   2.135   2.169   2.284   1.939   1.867   2.000   1.873   1.749   1.777   1.741   1.892   2.076
   201.00    1.780   1.804   2.059   2.313   2.157   2.395   2.276   2.200   2.208   2.323   2.200   2.144   2.175   2.050   1.924   1.874   1.963   2.051   1.961   2.056   2.246   1.967   1.891   1.889   1.856   1.995   2.255   2.222   2.249   2.318   2.199   2.177   2.031   1.937   2.112   2.093   2.060   2.130   2.130   2.016   2.262   2.169   2.229   2.250   2.317   2.316   2.129   2.163   2.192   2.162   2.049   2.096   1.887   1.876   1.754   1.749   1.968   2.093   2.030   2.091   2.233   2.160   2.034   2.088   1.976   1.998   1.995   2.088   1.969   1.841   1.941   2.084   1.949
   196.00    1.832   1.990   2.043   2.156   2.312   2.391   2.388   2.282   2.154   2.371   2.312   2.243   2.026   2.013   2.038   1.744   1.683   1.963   1.971   2.076   1.980   1.948   1.909   1.966   2.071   2.045   2.283   2.334   2.132   2.289   2.170   2.006   2.114   1.993   2.069   2.096   1.985   2.014   2.024   2.020   2.276   2.126   2.202   2.102   2.287   2.211   2.187   2.017   1.948   1.932   2.011   1.981   1.935   1.814   1.713   1.791   1.902   2.104   2.077   2.177   2.201   2.040   2.017   2.043   1.968   1.945   2.038   2.164   2.146   1.880   1.863   1.956   2.012
   191.00    1.910   1.955   2.152   2.207   2.343   2.505   2.363   2.324   2.282   2.262   2.320   2.180   2.011   2.057   1.957   1.809   1.684   1.816   1.762   2.051   2.126   2.061   2.052   2.060   1.922   1.923   2.201   2.289   2.227   2.152   2.320   2.209   2.145   2.198   2.185   2.104   1.973   2.039   2.173   2.135   2.251   2.232   2.307   2.218   2.220   2.233   1.997   1.932   2.100   1.891   1.975   2.019   2.032   1.804   1.798   2.002   2.071   2.143   2.247   2.325   2.340   2.200   1.997   2.032   1.818   1.895   2.071   2.239   2.095   1.847   1.999   1.982   2.205
   186.00    1.846   2.054   2.218   2.255   2.173   2.319   2.327   2.326   2.298   2.253   2.457   2.311   2.042   1.899   1.889   1.844   1.755   1.786   1.910   1.880   2.001   2.057   2.095   2.090   2.025   2.177   2.274   2.336   2.307   2.330   2.385   2.124   2.062   2.263   2.240   2.315   2.159   2.152   2.294   2.082   1.948   2.066   2.186   2.141   2.293   2.089   2.006   2.094   2.003   1.946   1.997   2.131   1.969   1.951   1.991   2.145   2.148   2.347   2.407   2.351   2.256   2.129   1.975   1.825   1.783   1.944   1.977   2.178   2.189   2.002   2.095   2.133   2.292
   181.00    2.115   2.143   2.155   2.126   2.102   2.220   2.202   2.145   2.142   2.245   2.347   2.290   2.130   1.927   1.901   1.882   1.808   2.050   2.127   2.067   2.007   2.073   2.065   2.080   2.221   2.374   2.165   2.258   2.395   2.472   2.451   2.136   2.204   2.280   2.273   2.263   2.216   2.212   2.204   2.076   2.018   2.000   2.137   1.981   2.111   2.170   2.198   1.993   2.135   2.083   2.183   2.209   1.921   1.975   2.260   2.295   2.244   2.352   2.226   2.253   2.032   2.130   1.917   1.939   1.826   1.950   2.039   2.210   2.279   2.129   2.224   2.312   2.309
   176.00    2.217   2.300   2.444   2.276   2.298   2.191   2.243   2.271   2.179   2.267   2.259   2.237   2.047   1.725   1.802   1.945   1.826   1.881   1.957   2.083   1.965   2.011   1.955   2.131   2.202   2.083   2.203   2.326   2.350   2.281   2.345   2.344   2.283   2.259   2.290   2.214   2.120   2.028   2.008   1.939   2.022   2.076   2.049   2.076   2.047   2.118   2.032   2.110   2.041   2.180   2.251   2.266   2.100   2.229   2.380   2.368   2.417   2.338   2.106   2.014   2.073   1.976   1.966   1.997   2.109   2.047   2.127   2.420   2.168   2.020   2.090   2.219   2.412
   171.00    2.360   2.217   2.241   2.391   2.526   2.317   2.245   2.330   2.095   2.029   2.085   2.137   2.119   1.957   1.902   1.936   1.769   1.852   1.939   1.970   1.962   2.135   1.984   2.068   2.273   2.261   2.237   2.188   2.159   2.302   2.160   2.290   2.283   2.139   2.247   2.090   2.041   1.903   1.845   1.942   1.920   1.851   1.946   2.010   2.008   2.095   2.015   2.031   2.034   2.243   2.200   2.292   2.238   2.352   2.463   2.428   2.320   2.238   2.123   2.030   2.048   1.918   1.905   2.011   2.039   2.142   2.264   2.288   2.096   2.030   2.080   2.144   2.312
   166.00    2.392   2.256   2.203   2.337   2.421   2.375   2.217   2.186   2.155   1.958   1.998   2.027   1.895   2.022   1.903   1.971   1.998   1.917   1.740   1.782   1.907   2.034   2.025   2.126   2.207   2.137   2.149   2.079   1.972   2.050   2.043   2.085   2.235   2.231   2.142   1.805   1.891   1.925   1.898   1.820   1.759   1.766   1.783   1.753   1.940   1.973   2.147   1.983   2.146   2.347   2.307   2.521   2.377   2.471   2.313   2.380   2.211   2.170   2.173   1.991   2.009   1.834   1.994   1.906   1.972   2.146   2.165   2.223   2.180   2.089   2.105   2.117   2.309
   161.00    2.194   2.092   2.045   2.290   2.350   2.445   2.172   2.253   2.215   2.098   2.248   1.958   1.984   2.015   1.997   1.971   1.957   1.700   1.806   1.916   1.979   2.043   2.132   2.059   2.148   2.125   1.996   2.109   1.940   2.050   2.050   2.204   2.166   2.304   2.264   1.878   1.883   1.952   1.925   1.892   1.815   1.688   1.821   1.769   1.949   2.011   2.086   2.144   2.283   2.404   2.442   2.600   2.454   2.426   2.349   2.505   2.253   2.069   1.945   1.983   1.942   1.856   1.851   1.905   1.952   1.892   1.989   2.210   1.987   2.099   1.975   2.037   2.175
   156.00    2.193   2.085   2.177   2.174   2.105   2.153   2.123   2.125   2.073   2.228   2.290   2.232   2.130   2.235   2.150   2.280   2.175   2.010   1.874   1.885   1.981   2.091   2.103   2.109   2.232   2.172   2.262   2.188   2.102   2.011   2.111   2.228   2.180   2.174   2.210   2.053   2.021   1.955   1.863   1.837   1.753   1.707   1.810   1.840   1.908   1.919   2.142   2.159   2.162   2.242   2.315   2.353   2.368   2.288   2.332   2.357   2.206   1.904   1.946   2.012   2.100   2.032   1.954   1.849   1.992   2.091   2.026   2.120   2.134   1.948   1.937   1.992   2.113
   151.00    2.175   2.236   2.185   2.139   1.968   1.933   2.023   2.053   2.031   2.216   2.142   2.224   2.148   2.276   2.367   2.258   2.230   2.114   1.878   1.920   2.051   2.079   2.026   2.033   2.237   2.166   2.151   2.207   2.127   2.082   2.105   2.210   2.072   2.116   2.009   2.014   2.041   1.965   1.851   1.746   1.692   1.700   1.811   1.917   1.926   1.933   2.036   2.145   2.026   2.273   2.389   2.320   2.350   2.268   2.233   2.186   2.154   2.013   2.042   1.984   2.040   2.013   2.061   1.982   2.023   1.963   1.853   1.890   1.846   1.815   1.706   1.966   2.061
   146.00    2.292   2.297   2.254   2.115   2.005   2.006   1.976   1.990   2.071   2.100   2.034   2.014   2.112   2.303   2.411   2.514   2.363   2.155   2.109   2.034   2.011   1.917   2.194   2.206   2.343   2.181   2.165   2.276   2.311   2.264   2.203   2.191   2.029   2.081   1.990   1.999   1.926   2.017   1.778   1.840   1.857   1.826   1.928   2.111   2.176   2.044   2.046   2.222   2.089   2.236   2.304   2.425   2.374   2.447   2.231   2.232   1.912   2.127   2.166   2.061   2.139   2.158   2.076   2.080   2.068   2.104   1.956   2.020   1.991   1.839   1.752   1.840   1.979
   141.00    2.232   2.230   2.134   2.117   2.094   1.974   2.110   2.186   2.162   2.189   2.167   2.066   2.179   2.367   2.310   2.394   2.366   2.161   2.116   2.081   2.158   2.204   2.063   2.168   2.294   2.199   2.216   2.306   2.289   2.309   2.200   2.065   2.062   2.039   2.101   2.080   2.013   2.105   1.782   1.856   2.058   2.131   2.164   2.123   2.215   2.123   2.221   2.162   2.194   2.349   2.538   2.470   2.287   2.372   2.200   2.201   2.153   2.195   2.092   2.147   2.201   2.199   2.083   2.196   2.125   2.085   2.004   1.922   1.892   1.938   1.987   1.951   1.981
   136.00    2.296   2.059   1.931   1.975   2.049   2.069   2.099   2.189   2.163   2.191   2.294   2.267   2.111   2.210   2.225   2.282   2.238   2.158   2.046   2.155   2.060   2.175   2.322   2.281   2.159   2.090   2.210   2.060   2.110   2.209   2.240   2.157   2.322   2.177   2.195   2.185   2.077   2.098   1.870   1.906   1.982   1.985   2.117   2.112   2.165   2.123   2.080   2.151   2.254   2.401   2.458   2.402   2.394   2.231   2.222   2.207   2.164   2.184   2.090   2.209   2.244   2.221   2.189   2.072   2.233   2.046   2.117   2.140   2.037   2.098   2.064   2.123   2.059
   131.00    2.140   2.048   1.984   2.017   2.034   2.146   2.147   2.134   2.236   2.360   2.332   2.227   2.133   2.083   2.145   2.013   2.208   2.213   2.177   2.142   2.064   2.042   2.225   2.330   2.368   2.393   2.299   2.147   2.124   2.109   2.123   2.137   2.334   2.164   2.231   2.136   2.042   2.248   2.073   2.125   2.094   1.996   2.050   2.116   2.142   2.020   1.975   2.072   2.219   2.235   2.373   2.172   2.194   2.217   2.304   2.085   2.164   2.230   2.236   2.133   2.074   2.199   2.324   2.310   2.301   2.164   2.072   2.124   2.036   1.976   2.063   2.173   2.053
   126.00    2.088   2.020   2.081   2.235   2.231   2.129   2.240   2.251   2.372   2.477   2.414   2.242   2.241   2.184   2.420   2.342   2.354   2.227   2.173   2.164   2.196   2.187   2.085   2.354   2.378   2.351   2.313   2.176   2.282   2.368   2.219   2.318   2.342   2.298   2.250   2.165   2.240   2.302   2.017   2.017   2.098   1.954   2.000   1.987   1.981   2.102   2.173   2.096   2.065   2.066   2.148   2.128   2.146   2.123   2.160   2.038   2.185   2.216   2.221   2.200   2.125   2.199   2.268   2.240   2.226   2.264   2.157   2.151   2.020   2.053   2.122   2.237   2.274
   121.00    2.037   2.008   2.032   2.189   2.163   2.160   2.298   2.295   2.299   2.533   2.586   2.376   2.529   2.511   2.775   2.560   2.503   2.339   2.321   2.285   2.429   2.367   2.397   2.288   2.322   2.302   2.131   2.242   2.377   2.267   2.298   2.309   2.279   2.178   2.106   2.176   2.213   2.300   2.069   2.135   1.991   2.012   2.030   2.118   1.961   1.965   2.198   1.958   2.023   2.103   2.075   1.982   1.908   2.138   2.122   2.013   2.056   2.288   2.227   2.277   2.289   2.081   2.179   2.123   2.208   2.182   2.242   2.076   2.157   2.198   2.187   2.212   2.285
   116.00    2.045   1.867   1.995   2.227   2.230   2.225   2.402   2.321   2.455   2.529   2.611   2.565   2.589   2.703   2.685   2.769   2.705   2.543   2.386   2.399   2.392   2.445   2.299   2.370   2.381   2.277   2.227   2.232   2.374   2.368   2.363   2.223   2.164   2.020   2.141   2.171   2.109   2.111   2.069   1.970   1.914   1.933   1.996   1.937   2.044   2.018   2.230   2.055   2.013   1.989   2.019   1.999   2.080   2.148   2.134   1.993   2.153   2.168   2.279   2.251   2.230   2.219   2.070   2.246   2.248   2.167   2.218   2.180   2.151   2.265   2.201   2.223   2.105
   111.00    2.003   1.932   1.979   2.140   2.389   2.434   2.349   2.440   2.552   2.458   2.689   2.582   2.614   2.690   2.817   2.771   2.693   2.544   2.357   2.382   2.490   2.549   2.526   2.305   2.411   2.330   2.179   2.191   2.251   2.258   2.173   2.203   2.169   2.165   2.097   2.157   2.165   2.033   1.939   1.937   1.864   1.809   1.833   2.057   1.901   2.194   2.233   2.198   2.071   2.038   2.125   2.268   2.039   2.205   2.139   2.045   2.160   2.306   2.206   2.037   2.237   2.121   2.210   2.176   2.263   2.115   2.187   2.251   2.311   2.368   2.243   2.160   2.149
   106.00    2.099   2.149   2.098   2.219   2.403   2.489   2.506   2.472   2.451   2.534   2.725   2.877   2.597   2.692   2.881   2.848   2.679   2.548   2.532   2.436   2.640   2.546   2.620   2.550   2.503   2.438   2.264   2.393   2.219   2.329   2.206   2.261   2.188   2.064   2.083   2.227   2.129   1.941   1.844   1.805   1.939   1.720   1.784   1.945   2.016   2.224   2.273   2.132   2.107   2.109   2.207   2.315   2.077   2.144   2.111   2.107   2.124   2.274   2.288   2.257   2.284   2.279   2.187   2.517   2.573   2.048   2.091   2.277   2.312   2.438   2.264   2.095   2.066
   101.00    2.357   2.175   2.245   2.233   2.379   2.595   2.463   2.395   2.542   2.542   2.463   2.690   2.760   2.779   2.743   2.884   2.731   2.621   2.703   2.519   2.632   2.564   2.694   2.725   2.697   2.512   2.404   2.404   2.436   2.214   2.378   2.304   2.154   2.308   2.382   2.214   2.121   2.009   1.971   1.922   1.902   1.807   1.775   1.916   2.043   2.169   2.268   2.135   2.104   1.998   2.099   2.237   2.172   2.267   2.206   2.147   2.229   2.305   2.480   2.464   2.483   2.368   2.388   2.537   2.503   2.246   2.150   2.289   2.261   2.306   2.427   2.234   2.199
    96.00    2.173   2.251   2.315   2.334   2.390   2.599   2.474   2.309   2.521   2.431   2.447   2.608   2.817   2.803   2.807   2.848   2.845   2.845   2.706   2.729   2.614   2.472   2.605   2.662   2.674   2.519   2.321   2.490   2.364   2.508   2.279   2.163   2.133   2.304   2.375   2.145   2.057   1.923   1.964   1.952   1.981   1.829   1.761   1.833   2.094   2.189   2.267   2.268   2.160   2.162   2.127   2.243   2.196   2.318   2.270   2.179   2.216   2.410   2.518   2.494   2.412   2.483   2.441   2.548   2.533   2.408   2.538   2.343   2.202   2.396   2.413   2.267   2.191
    91.00    2.126   2.226   2.239   2.330   2.569   2.676   2.513   2.372   2.323   2.264   2.543   2.730   2.767   2.874   2.654   2.749   2.706   2.929   2.754   2.824   2.727   2.598   2.625   2.734   2.724   2.549   2.457   2.436   2.568   2.420   2.196   2.084   2.329   2.431   2.436   2.157   1.971   1.972   1.918   2.054   2.200   2.048   1.980   1.953   2.060   2.140   2.254   2.247   2.169   2.248   2.280   2.337   2.306   2.156   2.185   2.217   2.257   2.665   2.649   2.484   2.515   2.532   2.493   2.457   2.573   2.468   2.399   2.278   2.226   2.399   2.312   2.276   2.330
    86.00    2.125   2.168   2.244   2.292   2.416   2.427   2.430   2.406   2.584   2.430   2.385   2.524   2.635   2.722   2.718   2.721   2.684   2.821   2.757   2.854   2.881   2.827   2.851   2.653   2.701   2.592   2.498   2.444   2.471   2.349   2.180   2.284   2.421   2.589   2.521   2.324   2.058   2.132   1.966   2.202   1.968   2.032   2.003   2.125   2.182   2.264   2.224   2.329   2.343   2.313   2.381   2.350   2.449   2.224   2.216   2.317   2.340   2.633   2.675   2.528   2.669   2.595   2.470   2.518   2.372   2.296   2.362   2.278   2.398   2.425   2.418   2.373   2.426
    81.00    2.175   2.121   2.164   2.168   2.203   2.284   2.370   2.342   2.393   2.555   2.581   2.461   2.481   2.575   2.610   2.709   2.721   2.787   2.745   2.767   2.717   2.857   2.771   2.955   2.861   2.584   2.608   2.621   2.424   2.402   2.422   2.332   2.649   2.512   2.275   2.298   2.147   2.181   2.134   2.130   1.971   2.075   1.900   2.017   2.072   2.207   2.146   2.295   2.480   2.449   2.404   2.608   2.566   2.373   2.424   2.460   2.476   2.466   2.621   2.578   2.667   2.557   2.450   2.346   2.219   2.048   2.180   2.250   2.353   2.218   2.229   2.310   2.197
    76.00    2.013   2.139   2.130   2.084   2.398   2.243   2.080   2.299   2.408   2.406   2.430   2.341   2.496   2.591   2.746   2.741   2.514   2.694   2.789   2.737   2.650   2.806   2.931   3.034   2.748   2.635   2.600   2.527   2.342   2.473   2.468   2.432   2.492   2.412   2.402   2.416   2.450   2.215   2.114   1.954   1.818   2.061   2.130   2.038   2.034   2.097   2.070   2.213   2.293   2.290   2.553   2.645   2.601   2.585   2.356   2.306   2.338   2.330   2.520   2.550   2.680   2.662   2.433   2.242   2.223   2.250   2.305   2.273   2.187   2.157   2.280   2.275   2.115
    71.00    1.990   1.995   2.026   2.182   2.247   2.268   2.165   2.103   2.294   2.404   2.355   2.390   2.493   2.680   2.715   2.652   2.662   2.616   2.796   2.735   2.763   2.850   2.994   3.054   2.893   2.784   2.619   2.445   2.463   2.409   2.462   2.621   2.519   2.542   2.471   2.239   2.305   2.104   2.006   1.950   1.922   2.119   2.177   2.188   2.219   2.170   1.982   2.006   2.101   2.154   2.235   2.464   2.374   2.697   2.310   2.408   2.418   2.491   2.379   2.599   2.626   2.494   2.398   2.342   2.305   2.384   2.407   2.274   2.137   2.138   2.163   2.304   2.315
    66.00    1.915   1.910   2.051   2.005   2.162   2.384   2.238   2.120   2.255   2.333   2.456   2.400   2.513   2.608   2.586   2.568   2.788   2.836   2.709   2.733   2.774   2.920   3.088   3.097   3.059   2.798   2.631   2.564   2.692   2.693   2.582   2.362   2.456   2.513   2.447   2.305   2.130   2.014   1.927   1.803   1.811   2.129   2.285   2.315   2.349   2.218   2.097   2.041   2.071   2.079   2.232   2.283   2.504   2.606   2.532   2.434   2.406   2.507   2.442   2.441   2.330   2.427   2.204   2.352   2.362   2.401   2.381   2.242   2.122   2.051   2.081   2.264   2.340
    61.00    1.799   1.863   1.764   1.953   2.100   2.131   2.328   2.471   2.333   2.355   2.441   2.508   2.567   2.574   2.599   2.701   2.721   2.630   2.890   2.769   2.834   2.996   3.065   3.240   3.086   2.879   2.736   2.616   2.573   2.568   2.535   2.344   2.454   2.321   2.244   2.223   1.998   1.959   1.923   1.765   1.766   1.961   2.289   2.429   2.375   2.239   2.203   2.026   2.006   2.156   2.202   2.160   2.334   2.501   2.394   2.254   2.286   2.455   2.295   2.424   2.327   2.384   2.402   2.203   2.287   2.385   2.489   2.459   2.356   2.306   2.165   2.168   2.181
    56.00    2.034   1.936   1.883   1.868   1.933   2.091   2.281   2.532   2.471   2.508   2.535   2.629   2.614   2.686   2.740   2.759   2.730   2.708   2.814   2.850   2.893   2.920   2.889   2.976   3.025   2.717   2.605   2.577   2.748   2.671   2.611   2.405   2.186   2.167   2.187   2.183   2.144   1.934   1.870   1.961   1.777   1.897   2.242   2.386   2.383   2.276   2.238   2.221   1.982   2.053   2.115   2.152   2.111   2.399   2.315   2.311   2.218   2.210   2.404   2.420   2.313   2.447   2.506   2.368   2.156   2.405   2.362   2.555   2.482   2.278   2.197   1.974   2.015
    51.00    1.972   1.963   2.033   1.909   2.021   2.185   2.371   2.426   2.415   2.421   2.559   2.587   2.552   2.418   2.562   2.598   2.763   2.711   2.800   2.901   3.033   2.859   2.928   2.806   2.785   2.597   2.734   2.767   2.690   2.705   2.522   2.437   2.450   2.285   2.307   2.121   2.032   1.937   1.991   1.957   1.821   1.902   1.892   2.139   2.252   2.192   2.130   2.226   2.027   1.980   2.203   2.087   2.040   2.063   2.289   2.189   2.175   2.150   2.302   2.303   2.265   2.346   2.405   2.146   2.273   2.372   2.520   2.477   2.435   2.468   2.276   2.028   2.031
    46.00    2.009   2.032   2.013   1.949   1.842   2.016   2.357   2.415   2.370   2.410   2.541   2.500   2.468   2.417   2.344   2.632   2.670   2.802   2.716   2.789   2.918   2.913   2.878   3.024   2.872   2.745   2.815   2.830   2.897   2.787   2.550   2.230   2.245   2.238   2.174   1.895   1.917   1.996   1.846   1.759   1.888   1.898   1.755   2.061   2.122   2.121   2.101   1.973   1.904   2.008   2.172   2.011   2.049   2.280   2.252   2.227   2.268   2.235   2.223   2.330   2.230   2.200   2.078   2.088   2.094   2.197   2.380   2.328   2.418   2.293   2.104   2.137   2.035
    41.00    1.875   1.899   1.995   1.986   1.874   1.958   2.261   2.352   2.156   2.361   2.382   2.425   2.290   2.361   2.463   2.514   2.482   2.511   2.699   2.706   2.973   2.975   2.881   2.919   3.037   2.847   2.755   2.837   2.966   2.821   2.601   2.223   2.087   2.122   2.153   2.079   2.027   1.984   1.719   1.720   1.866   1.841   1.872   2.121   2.046   2.030   2.031   1.964   1.833   1.805   1.854   2.006   2.085   2.307   2.355   2.197   2.175   2.332   2.350   2.116   1.896   1.935   1.830   1.886   1.927   2.004   2.121   2.113   2.249   2.173   2.207   2.149   2.101
    36.00    1.932   2.108   2.123   2.102   2.082   2.297   2.401   2.315   2.404   2.362   2.258   2.422   2.335   2.485   2.341   2.394   2.316   2.460   2.704   2.749   2.873   2.861   2.837   2.732   2.903   3.011   2.902   2.631   2.708   2.785   2.638   2.330   2.192   2.004   1.957   1.722   1.778   1.751   1.905   1.837   1.828   1.899   2.058   2.122   2.192   2.156   2.028   1.954   1.857   1.850   1.882   2.022   2.164   2.193   2.301   2.357   2.389   2.346   2.165   2.047   1.808   1.824   1.941   1.826   1.796   1.888   2.045   2.066   2.155   2.086   2.075   2.117   1.991
    31.00    1.734   1.925   1.965   2.083   2.349   2.299   2.340   2.412   2.264   2.195   2.352   2.292   2.191   2.322   2.276   2.215   2.158   2.129   2.314   2.423   2.613   2.584   2.702   2.748   2.805   2.747   2.686   2.689   2.730   2.691   2.606   2.364   2.176   2.086   1.976   1.741   1.739   1.678   1.740   1.844   1.869   1.874   1.927   1.964   2.097   2.139   2.075   1.943   1.832   1.718   1.915   2.057   2.145   2.195   2.266   2.336   2.358   2.090   2.074   1.916   1.887   1.755   1.794   1.838   1.953   1.793   1.828   2.034   1.938   1.934   1.895   1.933   1.843
    26.00    1.727   1.781   2.020   2.262   2.290   2.247   2.263   2.156   2.130   2.120   2.356   2.179   2.016   2.178   1.983   2.227   2.353   2.254   2.380   2.317   2.502   2.439   2.541   2.509   2.618   2.516   2.417   2.493   2.568   2.638   2.550   2.434   2.302   2.125   1.922   1.857   1.829   1.813   1.810   1.848   1.887   1.714   1.896   1.871   2.043   2.068   2.113   2.072   1.867   1.801   2.055   2.122   2.229   2.248   2.166   2.173   2.104   2.014   1.845   1.847   1.788   1.768   1.785   1.845   1.905   1.902   2.037   1.801   1.815   1.739   1.761   1.730   1.765
    21.00    1.753   1.817   1.953   2.028   2.168   2.224   2.170   2.098   2.011   2.112   2.220   2.111   2.035   2.129   2.247   2.260   2.386   2.347   2.402   2.333   2.415   2.443   2.510   2.472   2.386   2.297   2.360   2.382   2.457   2.536   2.436   2.474   2.427   2.171   2.173   2.004   2.027   1.948   1.969   1.684   1.796   1.769   1.642   1.891   1.914   1.924   2.080   2.095   2.052   1.973   2.019   2.089   2.004   2.131   2.113   2.178   2.121   1.871   1.812   1.751   1.721   1.868   2.015   1.940   1.904   2.017   1.953   1.844   1.688   1.639   1.542   1.647   1.709
    16.00    1.860   1.866   1.946   1.901   2.000   2.139   2.176   2.239   2.059   2.082   2.264   2.217   2.144   2.180   2.218   2.450   2.514   2.275   2.321   2.294   2.511   2.577   2.619   2.460   2.561   2.259   2.288   2.368   2.394   2.347   2.280   2.325   2.331   2.295   2.229   2.145   1.997   2.058   1.982   1.861   1.910   1.799   1.765   1.865   1.876   2.005   2.151   2.154   1.891   1.926   2.069   2.007   2.062   2.103   2.269   2.190   2.041   1.976   1.736   1.709   1.719   1.805   1.883   1.813   1.800   1.881   1.884   1.819   1.663   1.529   1.579   1.718   1.659
    11.00    1.974   1.777   1.735   1.992   2.084   2.262   2.100   2.244   2.180   2.119   2.315   2.246   2.385   2.316   2.488   2.403   2.454   2.442   2.286   2.238   2.370   2.400   2.597   2.442   2.336   2.415   2.320   2.220   2.299   2.358   2.301   2.277   2.218   2.368   2.262   2.192   2.041   2.129   2.133   1.839   1.934   1.809   1.786   1.917   2.017   2.002   2.067   2.075   2.038   1.952   1.927   1.976   1.865   2.003   2.218   2.195   2.110   1.908   1.796   1.855   1.775   1.871   1.868   1.711   1.721   1.754   1.803   1.781   1.689   1.801   1.670   1.718   1.784
     6.00    2.064   1.876   1.937   2.107   2.238   2.114   2.043   2.201   2.228   2.164   2.324   2.455   2.406   2.337   2.558   2.662   2.667   2.624   2.317   2.145   2.356   2.463   2.481   2.552   2.536   2.351   2.302   2.315   2.279   2.253   2.339   2.275   2.188   2.312   2.300   2.128   2.142   2.147   2.141   1.971   1.850   1.860   1.988   1.960   2.019   2.003   2.026   1.990   1.894   1.776   1.905   1.962   2.035   2.119   2.213   2.301   2.044   1.985   1.949   1.874   1.990   1.827   1.883   1.745   1.715   1.760   1.663   1.717   1.715   1.768   1.760   1.866   1.928
     1.00    2.166   1.983   2.150   2.230   2.350   2.262   2.191   2.126   2.203   2.185   2.220   2.322   2.327   2.325   2.512   2.677   2.654   2.501   2.283   2.181   2.140   2.193   2.209   2.291   2.340   2.465   2.327   2.370   2.226   2.202   2.290   2.239   2.138   2.190   2.202   2.250   2.156   2.063   2.237   2.135   1.974   1.855   1.953   2.034   2.109   2.095   2.012   1.905   1.975   1.970   1.883   1.897   2.014   2.074   2.083   2.126   2.168   1.982   2.118   1.962   1.887   1.898   1.930   1.847   1.709   1.740   1.850   1.807   1.755   1.758   1.753   1.915   1.852

   Height   Standard deviation at grid points for the v component:
   301.00    2.089   1.927   1.965   1.820   1.851   1.819   1.885   1.802   1.756   1.785   1.798   1.851   1.908   1.866   1.759   1.896   1.941   1.870   1.963   1.890   1.854   1.781   1.791   1.735   1.704   1.844   1.993   1.703   1.808   1.725   1.779   1.811   1.726   1.803   1.699   1.650   1.746   1.815   1.864   1.878   1.706   1.747   1.829   1.835   1.977   1.862   2.033   2.007   1.980   1.924   1.833   1.809   1.831   1.767   1.800   1.870   1.912   1.783   1.708   1.752   1.625   1.685   1.710   1.662   1.686   1.783   1.807   1.779   1.827   1.885   2.057   2.211   2.013
   296.00    1.950   2.025   2.014   1.935   1.986   1.901   1.917   1.880   1.847   1.866   1.858   1.856   1.853   1.835   1.885   1.831   1.787   1.910   1.949   1.860   1.721   1.690   1.725   1.707   1.786   1.818   1.929   1.791   1.736   1.793   1.758   1.732   1.760   1.816   1.679   1.703   1.747   1.830   1.954   1.927   1.746   1.717   1.835   1.874   1.963   1.975   2.000   2.002   1.959   1.989   1.900   1.891   1.959   1.944   1.942   1.922   1.888   1.783   1.656   1.672   1.794   1.622   1.751   1.780   1.703   1.672   1.675   1.791   1.854   1.905   1.995   2.077   1.939
   291.00    1.976   1.999   1.998   1.869   1.855   1.840   1.981   1.954   1.860   1.931   1.885   1.929   1.980   1.879   1.764   1.826   1.881   1.957   1.777   1.863   1.881   1.716   1.761   1.772   1.830   1.740   1.824   1.721   1.635   1.731   1.630   1.610   1.691   1.790   1.677   1.793   1.814   1.889   1.926   1.894   1.710   1.688   1.828   1.883   2.025   2.058   2.037   1.927   1.909   1.918   1.864   1.992   1.884   1.988   2.023   1.919   1.888   1.748   1.702   1.724   1.665   1.694   1.763   1.703   1.838   1.758   1.747   1.728   1.844   1.958   1.973   1.941   1.901
   286.00    1.873   1.933   1.942   1.861   1.804   1.832   1.879   1.928   1.922   1.952   1.949   1.901   1.913   1.869   1.810   1.846   1.970   1.862   1.763   1.767   1.814   1.738   1.793   1.738   1.846   1.789   1.759   1.747   1.729   1.753   1.633   1.679   1.675   1.583   1.751   1.793   1.867   1.814   1.886   1.778   1.790   1.856   1.831   1.850   2.036   2.079   2.062   1.966   1.931   1.919   1.939   1.913   1.928   1.968   1.998   1.907   1.784   1.692   1.655   1.753   1.718   1.731   1.745   1.841   1.829   1.804   1.866   1.942   2.000   2.023   2.046   2.061   1.918
   281.00    1.735   1.841   1.854   1.876   1.864   1.975   1.898   1.970   1.948   1.820   1.882   1.830   1.828   1.830   1.934   1.787   1.849   1.790   1.693   1.663   1.805   1.759   1.674   1.695   1.701   1.762   1.794   1.706   1.778   1.791   1.721   1.846   1.800   1.682   1.710   1.699   1.726   1.751   1.746   1.768   1.815   1.849   2.004   2.017   2.061   2.188   1.991   2.006   1.961   2.003   2.110   2.000   1.922   1.896   1.885   1.719   1.702   1.672   1.692   1.772   1.846   1.757   1.788   1.879   2.037   1.996   1.924   1.836   1.928   1.937   1.888   1.950   1.875
   276.00    1.913   1.956   1.920   1.861   1.815   1.906   1.851   2.020   2.016   1.958   1.812   1.847   1.764   1.923   1.874   1.858   1.818   1.778   1.833   1.765   1.772   1.793   1.725   1.671   1.708   1.704   1.665   1.782   1.785   1.820   1.785   1.745   1.747   1.706   1.684   1.569   1.570   1.602   1.637   1.609   1.772   1.937   1.929   1.964   1.952   2.100   1.997   1.923   2.000   1.947   1.927   2.037   2.023   2.006   1.884   1.675   1.724   1.624   1.623   1.728   1.830   1.669   1.815   1.828   1.921   1.831   1.894   1.909   2.026   1.899   1.866   1.946   1.952
   271.00    1.909   1.845   1.921   1.956   1.938   1.966   1.953   1.920   1.849   1.865   1.826   1.900   1.883   1.913   1.911   1.915   1.839   1.848   1.944   1.851   1.890   1.873   1.866   1.771   1.695   1.722   1.739   1.718   1.840   1.839   1.887   1.795   1.759   1.655   1.669   1.613   1.707   1.607   1.784   1.671   1.823   1.911   1.857   1.833   2.029   1.994   2.014   1.885   2.127   1.982   1.972   2.085   2.011   1.980   1.897   1.788   1.746   1.758   1.727   1.711   1.794   1.763   1.814   1.813   1.892   1.874   1.865   1.921   1.891   1.925   1.906   1.911   1.966
   266.00    1.793   1.892   1.952   1.883   1.953   2.039   1.980   1.951   1.851   1.878   1.799   1.734   1.940   1.950   2.064   1.922   1.855   1.889   1.898   1.949   1.851   1.891   1.809   1.828   1.677   1.794   1.707   1.664   1.798   1.946   1.940   1.877   1.936   1.776   1.701   1.819   1.844   1.807   1.775   1.852   1.906   1.872   1.811   1.842   1.775   1.875   1.887   1.779   1.956   1.983   2.125   2.035   2.106   1.990   1.978   2.004   1.813   1.836   1.853   1.774   1.771   1.804   1.729   1.724   1.898   1.844   1.840   1.907   1.816   1.919   1.857   1.834   1.980
   261.00    1.746   1.825   1.908   1.856   1.961   1.996   1.991   2.019   2.028   1.892   1.832   1.814   1.934   2.003   1.942   1.854   1.901   1.778   1.834   1.811   1.910   1.839   1.780   1.757   1.631   1.707   1.813   1.794   1.825   1.888   1.906   2.045   1.934   1.820   1.734   1.754   1.779   1.924   1.888   1.822   1.898   1.851   1.879   1.918   1.742   1.704   1.615   1.684   1.858   1.905   2.028   2.048   2.057   2.066   2.004   1.931   1.902   1.813   1.694   1.705   1.731   1.668   1.747   1.869   1.894   1.932   1.928   1.897   1.961   1.912   1.853   1.920   2.034
   256.00    1.749   1.786   1.822   1.862   1.889   1.829   1.857   1.998   1.990   1.873   1.849   1.879   2.031   2.059   1.986   1.940   1.837   1.822   1.804   1.795   1.747   1.830   1.783   1.742   1.679   1.723   1.792   1.846   1.924   1.881   1.902   1.900   1.945   1.897   1.955   1.719   1.774   1.916   1.780   1.867   1.787   1.819   1.823   1.806   1.670   1.609   1.582   1.653   1.752   1.808   1.897   1.914   1.875   1.884   1.895   1.831   1.745   1.666   1.642   1.669   1.729   1.739   1.774   1.849   1.885   1.932   1.801   1.926   1.872   1.979   1.893   1.969   2.009
   251.00    1.716   1.807   1.907   1.859   1.858   1.864   1.970   1.969   1.947   1.942   1.895   1.916   2.050   2.017   2.016   1.960   1.915   1.839   1.913   1.850   1.684   1.769   1.709   1.715   1.681   1.739   1.770   1.837   1.866   1.936   1.980   1.843   1.949   1.918   2.013   1.773   1.855   1.828   1.914   1.943   1.991   1.780   1.799   1.805   1.680   1.650   1.672   1.774   1.759   1.819   1.758   1.719   1.756   1.865   1.912   1.714   1.682   1.716   1.729   1.670   1.728   1.764   1.797   1.790   1.880   1.980   1.847   1.783   1.889   1.787   1.847   1.907   1.927
   246.00    1.781   1.718   1.778   1.741   1.876   1.943   1.956   2.003   2.039   1.975   1.958   1.860   1.986   1.975   2.085   1.956   1.918   1.894   1.967   1.805   1.812   1.782   1.694   1.637   1.629   1.840   1.745   1.912   1.950   2.060   2.054   1.915   1.968   1.972   1.961   1.946   1.853   1.800   1.843   1.902   1.933   1.798   1.741   1.815   1.710   1.648   1.632   1.672   1.781   1.794   1.720   1.664   1.741   1.836   1.920   1.776   1.820   1.779   1.689   1.701   1.770   1.796   1.829   1.797   1.877   1.809   1.858   1.844   1.753   1.765   1.730   1.818   1.865
   241.00    1.764   1.796   1.767   1.784   1.894   2.016   2.073   1.986   1.916   1.989   2.036   1.992   1.915   2.079   2.023   2.051   2.036   1.868   1.878   1.857   1.831   1.700   1.725   1.658   1.776   1.830   1.879   1.887   1.934   1.989   1.882   1.904   2.022   1.942   2.032   2.090   1.894   1.998   1.848   1.758   1.806   1.667   1.730   1.687   1.586   1.714   1.698   1.725   1.838   1.808   1.747   1.786   1.750   1.868   1.848   1.926   1.871   1.719   1.735   1.762   1.773   1.797   1.777   1.741   1.779   1.802   1.864   1.877   1.758   1.622   1.704   1.770   1.827
   236.00    1.683   1.684   1.799   1.984   2.023   2.037   2.038   1.913   1.928   1.917   2.125   1.998   2.002   2.092   1.976   1.898   1.877   1.892   1.913   1.776   1.806   1.753   1.695   1.715   1.740   1.820   1.916   1.867   1.779   1.868   1.867   1.910   1.961   1.916   1.913   2.029   2.032   1.983   1.751   1.749   1.649   1.707   1.744   1.649   1.641   1.618   1.624   1.795   1.881   1.778   1.824   1.795   1.837   1.864   1.813   1.838   1.776   1.638   1.721   1.662   1.781   1.733   1.708   1.817   1.746   1.800   1.753   1.692   1.679   1.610   1.744   1.818   1.820
   231.00    1.770   1.703   1.918   1.998   2.064   2.049   2.036   2.032   1.838   1.949   2.174   2.070   2.095   2.038   2.086   1.908   2.015   1.860   1.960   1.752   1.768   1.713   1.776   1.752   1.740   1.802   1.818   1.681   1.715   1.761   1.760   1.783   1.756   1.815   1.826   1.857   1.822   1.825   1.685   1.618   1.658   1.615   1.697   1.614   1.595   1.563   1.570   1.665   1.701   1.797   1.848   1.833   1.820   1.791   1.713   1.764   1.685   1.722   1.739   1.708   1.718   1.646   1.716   1.754   1.752   1.680   1.666   1.572   1.615   1.758   1.867   1.969   1.936
   226.00    1.918   1.884   1.978   2.001   2.163   2.105   2.104   2.034   1.965   2.022   2.145   2.150   2.070   2.071   2.076   2.023   1.950   1.839   1.839   1.771   1.846   1.742   1.654   1.790   1.712   1.762   1.699   1.616   1.630   1.730   1.719   1.655   1.676   1.669   1.846   1.810   1.813   1.687   1.631   1.563   1.588   1.677   1.647   1.717   1.734   1.610   1.644   1.685   1.674   1.790   1.847   1.783   1.864   1.801   1.775   1.679   1.667   1.838   1.824   1.796   1.677   1.624   1.777   1.794   1.750   1.644   1.669   1.622   1.799   1.779   1.894   1.833   1.860
   221.00    1.963   1.994   1.985   2.103   2.204   2.295   2.145   1.982   2.114   1.950   2.096   2.158   2.162   2.101   2.037   1.951   1.929   1.921   1.874   1.859   1.840   1.816   1.692   1.743   1.759   1.795   1.742   1.625   1.633   1.645   1.673   1.663   1.677   1.734   1.871   1.821   1.747   1.660   1.592   1.501   1.589   1.658   1.679   1.744   1.710   1.626   1.594   1.735   1.748   1.933   1.955   1.954   1.809   1.770   1.721   1.740   1.774   1.846   1.764   1.707   1.690   1.593   1.802   1.748   1.759   1.646   1.703   1.703   1.794   1.837   1.852   1.826   1.872
   216.00    1.901   1.931   1.990   2.099   2.187   2.145   2.220   2.058   2.021   2.046   1.970   1.958   2.041   2.003   1.986   1.868   1.878   1.772   1.690   1.799   1.814   1.714   1.764   1.711   1.783   1.784   1.742   1.762   1.686   1.574   1.707   1.684   1.592   1.710   1.749   1.643   1.660   1.644   1.645   1.584   1.666   1.687   1.702   1.780   1.672   1.614   1.698   1.774   1.802   1.905   2.002   1.909   1.799   1.866   1.835   1.771   1.821   1.778   1.720   1.728   1.747   1.686   1.777   1.768   1.800   1.729   1.691   1.683   1.867   2.074   2.008   1.786   1.759
   211.00    1.937   1.945   2.112   2.109   2.200   2.168   2.190   2.022   1.989   1.941   1.917   1.957   2.064   2.019   1.914   1.949   1.887   1.823   1.795   1.782   1.737   1.753   1.862   1.755   1.777   1.771   1.787   1.823   1.778   1.805   1.761   1.743   1.627   1.606   1.696   1.673   1.717   1.739   1.711   1.641   1.828   1.805   1.868   1.776   1.722   1.708   1.771   1.876   1.901   1.931   2.119   1.881   1.896   1.813   1.802   1.806   1.899   1.875   1.781   1.776   1.757   1.738   1.907   1.814   1.771   1.765   1.781   1.806   1.870   1.963   1.939   1.772   1.718
   206.00    1.964   2.054   2.120   2.098   2.040   2.028   1.945   1.987   1.999   1.960   1.892   2.016   2.014   1.879   1.909   1.976   1.968   1.877   1.829   1.790   1.790   1.820   1.841   1.861   1.940   1.954   1.955   1.870   1.833   1.696   1.839   1.785   1.763   1.667   1.664   1.628   1.676   1.773   1.769   1.729   1.817   1.824   1.845   1.785   1.785   1.846   1.850   1.879   1.861   1.987   2.040   1.893   1.846   1.773   1.875   1.882   1.955   1.883   1.800   1.871   1.908   1.936   1.826   1.911   1.826   1.881   1.752   1.799   1.887   1.812   1.767   1.715   1.631
   201.00    1.954   2.020   2.049   2.058   2.052   1.981   1.951   1.905   1.979   1.843   1.924   1.941   1.922   2.074   1.993   1.992   1.955   1.899   1.924   1.765   1.685   1.782   1.829   1.839   1.963   1.895   1.872   1.864   1.764   1.828   1.795   1.818   1.790   1.762   1.675   1.730   1.712   1.816   1.920   1.805   1.838   1.803   1.944   1.916   1.930   1.852   1.886   1.950   2.049   2.038   1.986   1.911   1.882   1.777   1.783   1.961   1.939   2.009   1.933   1.887   1.995   1.958   1.998   1.931   1.996   1.844   1.914   1.957   1.884   1.732   1.711   1.725   1.663
   196.00    1.906   1.993   2.014   1.960   1.958   1.912   1.914   1.861   1.848   1.886   1.823   1.820   1.784   1.888   1.965   1.874   1.980   1.935   1.889   1.710   1.645   1.680   1.777   1.865   1.886   1.840   1.801   1.791   1.778   1.808   1.825   1.892   1.876   1.916   1.857   1.829   1.925   1.870   1.890   1.917   1.931   1.938   1.951   1.978   1.976   1.974   1.962   2.034   1.932   2.088   2.005   1.890   1.917   1.858   1.730   1.778   1.893   1.941   1.937   1.938   1.911   1.981   1.941   1.947   2.045   2.106   2.027   2.121   1.880   1.881   1.759   1.690   1.743
   191.00    1.966   2.046   2.027   2.010   1.984   1.903   2.006   1.828   1.705   1.840   1.807   1.810   1.767   1.782   1.796   1.875   1.852   1.799   1.688   1.730   1.689   1.652   1.686   1.743   1.805   1.839   1.719   1.686   1.794   1.837   1.882   1.878   1.817   1.766   1.823   1.840   1.832   1.840   1.946   1.900   1.873   1.971   1.887   2.010   2.041   2.062   2.000   1.949   1.956   1.983   1.892   1.881   1.897   1.910   1.927   1.827   1.827   1.840   1.909   1.935   1.894   1.926   2.013   1.998   1.943   2.063   2.055   2.003   1.952   1.892   1.889   1.710   1.743
   186.00    1.884   1.880   1.796   1.979   1.974   1.936   1.885   1.860   1.692   1.837   2.000   1.851   1.921   1.768   1.814   1.784   1.884   1.738   1.727   1.665   1.774   1.715   1.620   1.695   1.868   1.814   1.788   1.696   1.765   1.838   1.734   1.844   1.663   1.823   1.777   1.809   1.758   1.848   1.849   1.788   1.791   1.825   1.768   1.976   2.018   2.012   2.011   2.030   2.105   1.882   1.946   1.880   1.895   1.961   1.917   1.882   1.831   1.867   1.999   1.861   1.906   1.891   1.923   1.966   1.967   1.870   1.929   2.013   1.840   1.846   1.738   1.798   1.739
   181.00    1.830   1.778   1.806   1.966   2.045   1.886   1.772   1.813   1.745   1.865   1.804   1.901   1.926   1.877   1.913   1.848   1.852   1.888   1.790   1.615   1.721   1.742   1.782   1.818   1.799   1.811   1.741   1.726   1.738   1.771   1.826   1.845   1.785   1.842   1.804   1.853   1.891   1.912   1.939   1.905   1.761   1.681   1.895   1.927   1.961   1.767   1.876   1.994   1.984   1.907   1.906   1.848   1.859   1.893   1.800   1.836   1.813   1.729   1.850   1.926   1.808   1.707   1.759   1.830   1.884   1.804   1.784   1.899   1.925   1.788   1.771   1.853   1.712
   176.00    1.794   1.843   1.944   1.961   1.900   1.865   1.767   1.729   1.693   1.778   1.790   1.696   1.912   1.743   1.820   1.736   1.758   1.764   1.819   1.707   1.712   1.728   1.702   1.804   1.791   1.762   1.767   1.687   1.714   1.664   1.711   1.737   1.791   1.783   1.867   1.786   1.887   1.946   1.881   1.969   1.896   1.796   1.934   2.035   2.003   2.020   1.943   1.951   1.915   1.873   2.047   2.010   1.827   1.816   1.847   1.784   1.871   1.836   1.843   1.875   1.933   1.827   1.718   1.777   1.825   1.764   1.925   1.850   1.857   1.754   1.769   1.768   1.742
   171.00    1.784   1.856   1.933   1.917   1.810   1.777   1.759   1.715   1.682   1.679   1.701   1.760   1.749   1.779   1.719   1.694   1.690   1.790   1.770   1.803   1.701   1.737   1.694   1.780   1.783   1.906   1.829   1.731   1.634   1.674   1.651   1.836   1.869   1.831   1.662   1.690   1.899   1.943   1.933   2.008   1.999   1.847   1.901   1.981   1.991   1.920   1.908   1.980   1.917   1.885   1.875   1.988   1.945   1.826   1.763   1.824   1.928   1.930   1.802   1.897   1.939   2.011   1.860   1.859   1.704   1.855   1.972   2.098   1.899   1.812   1.693   1.686   1.693
   166.00    1.646   1.747   1.829   1.812   1.828   1.739   1.791   1.712   1.686   1.639   1.685   1.682   1.712   1.689   1.682   1.647   1.641   1.666   1.756   1.686   1.642   1.735   1.839   1.766   1.795   1.815   1.860   1.691   1.762   1.724   1.698   1.801   1.849   1.951   1.906   1.825   1.871   1.934   1.906   1.974   2.085   2.045   2.002   1.935   1.950   2.106   2.132   2.142   2.042   2.027   2.005   1.988   1.918   1.791   1.817   1.933   1.883   1.838   1.866   1.970   2.004   1.899   1.873   1.871   1.786   1.785   1.920   2.029   1.879   1.842   1.819   1.738   1.622
   161.00    1.670   1.711   1.765   1.849   1.878   1.938   1.738   1.803   1.740   1.780   1.690   1.592   1.701   1.765   1.649   1.563   1.584   1.655   1.645   1.680   1.765   1.708   1.766   1.833   1.791   1.810   1.815   1.771   1.835   1.746   1.791   1.867   1.878   1.843   1.879   1.878   1.901   1.964   1.949   2.002   1.983   2.051   2.094   1.893   2.101   2.208   2.185   2.104   2.050   2.109   2.072   2.030   1.842   1.838   1.762   1.853   1.895   1.829   1.793   1.771   1.922   1.844   1.851   1.734   1.800   1.848   1.841   1.821   1.915   1.933   1.863   1.687   1.652
   156.00    1.736   1.823   1.873   1.831   1.852   1.909   1.888   1.823   1.799   1.821   1.649   1.624   1.654   1.702   1.712   1.607   1.607   1.652   1.585   1.628   1.676   1.634   1.729   1.796   1.812   1.903   1.785   1.852   1.823   1.745   1.784   1.822   1.908   1.956   1.918   1.855   1.946   2.013   1.881   1.921   2.057   2.037   1.927   1.963   2.056   2.040   2.048   2.162   2.081   2.079   2.143   2.045   1.893   1.782   1.897   1.908   1.847   1.766   1.708   1.760   1.820   1.810   1.817   1.767   1.748   1.828   1.786   1.835   1.910   1.924   1.912   1.756   1.772
   151.00    1.850   1.904   1.912   1.937   1.906   1.899   1.801   1.805   1.804   1.817   1.678   1.560   1.734   1.711   1.715   1.646   1.661   1.686   1.727   1.603   1.626   1.648   1.654   1.626   1.676   1.752   1.795   1.820   1.906   1.879   1.784   1.878   1.882   1.926   1.813   1.827   1.843   1.879   1.796   1.862   1.983   1.784   1.874   1.919   1.851   2.029   2.117   2.237   2.235   2.016   2.216   2.066   1.881   1.788   1.790   1.765   1.842   1.822   1.699   1.713   1.689   1.707   1.641   1.595   1.653   1.692   1.636   1.724   1.883   1.892   1.790   1.748   1.795
   146.00    1.931   1.868   1.852   1.877   1.877   1.894   1.847   1.896   1.955   1.797   1.786   1.777   1.725   1.683   1.720   1.721   1.745   1.756   1.763   1.730   1.684   1.589   1.596   1.627   1.615   1.836   1.760   1.907   1.897   1.767   1.838   1.874   1.856   1.911   1.817   1.896   1.908   1.836   1.775   1.876   1.792   1.772   1.889   1.780   1.819   1.853   1.982   2.118   2.111   2.067   2.072   2.089   1.936   1.742   1.660   1.642   1.672   1.638   1.698   1.531   1.605   1.633   1.649   1.510   1.573   1.686   1.695   1.846   1.906   1.806   1.787   1.681   1.795
   141.00    1.904   1.844   1.796   1.792   1.889   1.798   1.843   1.988   1.934   1.904   1.703   1.796   1.802   1.729   1.729   1.601   1.676   1.788   1.774   1.699   1.696   1.791   1.775   1.640   1.710   1.810   1.844   1.863   1.893   1.812   1.767   1.916   1.855   1.880   1.787   1.887   1.864   1.917   1.906   1.882   1.836   1.825   1.970   1.862   1.918   1.900   1.820   1.951   2.072   2.177   2.130   1.951   1.988   1.773   1.654   1.616   1.570   1.553   1.564   1.575   1.661   1.631   1.495   1.448   1.472   1.623   1.639   1.646   1.729   1.765   1.784   1.718   1.603
   136.00    1.873   1.777   1.760   1.791   1.761   1.773   1.860   1.986   1.962   1.876   1.750   1.757   1.735   1.711   1.735   1.669   1.810   1.862   1.868   1.949   1.710   1.786   1.753   1.687   1.726   1.713   1.795   1.799   1.987   1.869   1.927   1.962   1.889   1.894   1.829   1.837   1.877   2.049   2.038   1.798   1.821   1.937   1.901   1.884   1.922   1.791   1.845   1.912   2.011   2.026   2.077   1.883   1.832   1.768   1.688   1.589   1.519   1.617   1.536   1.541   1.570   1.476   1.407   1.435   1.540   1.620   1.647   1.597   1.749   1.681   1.731   1.679   1.680
   131.00    1.875   1.719   1.717   1.781   1.751   1.867   1.841   1.884   1.770   1.773   1.768   1.886   1.805   1.726   1.699   1.658   1.768   1.841   1.929   1.943   1.748   1.687   1.644   1.628   1.762   1.768   1.888   1.855   1.908   1.681   1.848   1.768   1.830   1.762   1.844   1.861   1.933   2.036   1.959   1.806   1.983   1.921   1.796   1.845   1.762   1.562   1.578   1.806   1.771   1.938   1.806   1.719   1.602   1.699   1.760   1.746   1.613   1.515   1.430   1.480   1.551   1.613   1.480   1.529   1.660   1.535   1.557   1.626   1.616   1.528   1.735   1.723   1.785
   126.00    1.694   1.654   1.636   1.606   1.719   1.685   1.737   1.756   1.767   1.761   1.723   1.836   1.651   1.743   1.687   1.672   1.834   1.743   1.815   1.822   1.881   1.661   1.805   1.652   1.795   1.870   1.837   1.874   1.883   1.775   1.898   1.929   1.844   1.830   1.777   1.815   1.833   1.826   1.934   1.974   1.904   1.834   1.813   1.776   1.832   1.676   1.620   1.766   1.820   1.878   1.858   1.602   1.712   1.671   1.723   1.692   1.684   1.477   1.545   1.587   1.592   1.580   1.536   1.585   1.539   1.512   1.554   1.636   1.651   1.597   1.769   1.813   1.691
   121.00    1.686   1.601   1.597   1.618   1.615   1.699   1.658   1.689   1.676   1.505   1.666   1.743   1.799   1.803   1.824   1.821   1.817   1.782   1.737   1.707   1.773   1.750   1.769   1.686   1.671   1.780   1.766   1.819   1.938   1.926   2.012   2.044   1.882   1.905   1.826   1.754   1.717   1.826   1.869   1.878   1.815   1.740   1.772   1.796   1.899   1.754   1.660   1.674   1.758   1.776   1.851   1.809   1.770   1.705   1.776   1.739   1.742   1.661   1.611   1.598   1.668   1.647   1.681   1.603   1.506   1.568   1.544   1.599   1.572   1.649   1.735   1.688   1.715
   116.00    1.644   1.601   1.645   1.607   1.560   1.661   1.713   1.785   1.597   1.525   1.591   1.744   1.728   1.744   1.692   1.821   1.719   1.702   1.638   1.645   1.725   1.732   1.737   1.628   1.585   1.684   1.736   1.803   1.885   1.950   1.956   2.085   1.924   1.911   1.799   1.845   1.883   1.910   1.850   1.721   1.798   1.754   1.803   1.897   1.824   1.761   1.719   1.801   1.873   1.919   1.880   1.923   1.788   1.764   1.758   1.752   1.638   1.593   1.574   1.588   1.609   1.705   1.626   1.643   1.610   1.571   1.537   1.635   1.582   1.544   1.622   1.648   1.675
   111.00    1.679   1.677   1.737   1.678   1.707   1.711   1.724   1.685   1.644   1.584   1.573   1.687   1.600   1.643   1.701   1.708   1.678   1.747   1.741   1.734   1.726   1.732   1.738   1.667   1.513   1.650   1.740   1.812   1.949   1.975   1.987   1.972   1.986   1.893   1.898   1.954   1.966   1.989   1.838   1.834   1.727   1.843   1.815   1.842   1.900   1.904   1.907   1.888   1.842   1.823   1.770   1.713   1.747   1.849   1.707   1.714   1.679   1.556   1.583   1.641   1.663   1.673   1.717   1.741   1.783   1.718   1.654   1.747   1.725   1.604   1.674   1.597   1.657
   106.00    1.706   1.718   1.706   1.783   1.692   1.709   1.800   1.850   1.691   1.674   1.600   1.703   1.596   1.683   1.656   1.687   1.621   1.749   1.685   1.659   1.622   1.697   1.616   1.605   1.657   1.747   1.751   1.774   1.835   1.902   2.078   2.029   2.081   1.980   1.920   1.976   2.038   2.032   1.889   1.821   1.896   1.931   1.866   1.908   1.941   1.855   1.893   2.024   2.005   1.834   1.737   1.754   1.676   1.710   1.665   1.649   1.700   1.532   1.504   1.575   1.578   1.567   1.590   1.647   1.870   1.832   1.645   1.694   1.706   1.614   1.704   1.789   1.748
   101.00    1.709   1.674   1.811   1.776   1.695   1.794   1.804   1.681   1.579   1.577   1.602   1.664   1.634   1.554   1.572   1.613   1.638   1.603   1.700   1.705   1.714   1.780   1.768   1.714   1.602   1.683   1.657   1.812   1.892   1.942   1.928   2.008   2.156   2.072   2.009   2.041   1.997   1.966   1.953   1.967   1.869   1.890   1.963   1.964   1.983   1.979   2.015   2.090   1.958   1.803   1.704   1.760   1.650   1.673   1.686   1.609   1.606   1.615   1.658   1.626   1.567   1.542   1.583   1.579   1.732   1.806   1.741   1.806   1.804   1.791   1.758   1.682   1.675
    96.00    1.705   1.744   1.763   1.783   1.720   1.721   1.828   1.717   1.673   1.655   1.664   1.630   1.554   1.580   1.564   1.571   1.584   1.533   1.636   1.757   1.739   1.763   1.849   1.656   1.682   1.738   1.776   1.759   1.895   1.780   1.940   2.071   2.081   2.066   2.077   2.052   2.019   1.971   1.962   1.974   1.917   1.908   2.135   2.071   2.044   1.993   1.978   1.980   1.973   1.789   1.692   1.733   1.805   1.663   1.655   1.677   1.647   1.537   1.568   1.602   1.593   1.484   1.551   1.639   1.720   1.736   1.858   1.882   1.946   1.905   1.745   1.682   1.628
    91.00    1.679   1.711   1.742   1.800   1.818   1.753   1.744   1.849   1.729   1.683   1.691   1.752   1.692   1.639   1.576   1.507   1.528   1.572   1.547   1.621   1.713   1.737   1.748   1.705   1.830   1.817   1.752   1.842   1.842   1.888   2.038   2.083   2.067   2.122   2.069   2.050   2.096   2.072   2.013   1.942   1.975   2.054   2.242   2.168   2.213   1.980   1.924   1.891   1.946   1.716   1.843   1.754   1.758   1.623   1.656   1.557   1.597   1.505   1.554   1.561   1.572   1.485   1.556   1.634   1.560   1.738   1.866   1.895   1.936   1.958   1.794   1.730   1.632
    86.00    1.777   1.750   1.667   1.769   1.749   1.746   1.810   1.861   1.747   1.730   1.819   1.856   1.901   1.823   1.569   1.609   1.569   1.585   1.614   1.672   1.755   1.781   1.715   1.817   1.744   1.725   1.821   1.849   1.755   1.944   2.036   2.161   2.146   2.064   2.238   2.199   2.139   2.122   1.982   2.043   2.013   2.019   2.139   2.286   2.137   2.098   2.046   1.906   1.869   1.820   1.769   1.807   1.713   1.630   1.614   1.547   1.512   1.556   1.525   1.502   1.567   1.538   1.578   1.639   1.672   1.686   1.838   1.739   1.816   1.826   1.771   1.722   1.612
    81.00    1.796   1.783   1.749   1.838   1.776   1.792   1.784   1.889   1.790   1.831   1.819   1.918   1.989   1.912   1.832   1.740   1.726   1.688   1.639   1.707   1.706   1.790   1.643   1.647   1.700   1.791   1.716   1.855   1.764   1.873   2.020   2.119   2.155   2.178   2.130   2.227   2.102   1.951   1.938   1.999   1.976   2.094   2.200   2.137   2.064   1.960   1.999   1.857   1.720   1.768   1.661   1.657   1.648   1.604   1.619   1.470   1.521   1.466   1.539   1.492   1.493   1.631   1.565   1.698   1.684   1.716   1.740   1.694   1.655   1.830   1.779   1.726   1.686
    76.00    1.789   1.752   1.698   1.719   1.793   1.738   1.793   1.788   1.888   1.818   1.944   1.830   2.054   1.853   1.777   1.745   1.770   1.702   1.697   1.715   1.712   1.694   1.567   1.678   1.700   1.705   1.786   1.849   1.746   1.930   2.093   2.059   2.065   2.072   2.092   2.005   2.046   2.036   1.980   1.999   1.819   1.996   2.053   2.060   2.048   1.941   1.855   1.850   1.711   1.709   1.709   1.727   1.759   1.716   1.644   1.615   1.604   1.554   1.538   1.519   1.495   1.542   1.626   1.691   1.647   1.652   1.559   1.614   1.660   1.716   1.726   1.677   1.696
    71.00    1.737   1.671   1.765   1.784   1.749   1.683   1.852   1.859   1.930   1.738   1.860   1.981   1.971   1.842   1.742   1.752   1.746   1.733   1.804   1.697   1.720   1.802   1.787   1.765   1.781   1.769   1.852   1.815   1.758   1.839   1.956   2.082   2.014   2.084   1.926   2.009   2.042   2.081   2.021   2.003   1.975   2.060   2.055   2.016   1.984   1.869   1.856   1.811   1.736   1.730   1.635   1.730   1.745   1.708   1.713   1.718   1.625   1.517   1.508   1.443   1.478   1.549   1.547   1.548   1.580   1.623   1.530   1.523   1.607   1.584   1.643   1.781   1.697
    66.00    1.869   1.779   1.878   1.770   1.702   1.754   1.831   1.848   1.863   1.876   1.850   1.894   1.859   1.836   1.741   1.697   1.614   1.735   1.733   1.708   1.760   1.918   1.870   1.720   1.831   1.742   1.756   1.766   1.711   1.783   1.926   1.982   1.997   1.960   2.062   2.074   2.025   1.999   2.014   2.002   1.965   1.898   1.826   1.906   1.835   1.833   1.783   1.711   1.694   1.698   1.740   1.793   1.751   1.720   1.676   1.600   1.626   1.568   1.389   1.367   1.440   1.571   1.544   1.604   1.552   1.580   1.532   1.542   1.637   1.656   1.583   1.683   1.672
    61.00    1.867   1.867   1.815   1.851   1.720   1.765   1.777   1.745   1.752   1.727   1.783   1.774   1.859   1.804   1.678   1.683   1.617   1.737   1.783   1.798   1.720   1.809   1.773   1.933   1.860   1.866   1.845   1.853   1.756   1.757   1.808   1.767   1.866   1.869   2.036   2.065   2.026   2.065   1.986   2.068   1.917   1.811   1.887   1.838   1.843   1.912   1.832   1.735   1.632   1.681   1.712   1.678   1.665   1.597   1.645   1.568   1.574   1.560   1.438   1.420   1.448   1.446   1.501   1.512   1.529   1.488   1.536   1.531   1.591   1.576   1.607   1.697   1.758
    56.00    1.999   1.876   1.907   1.750   1.774   1.791   1.836   1.758   1.706   1.697   1.863   1.837   1.810   1.735   1.694   1.655   1.624   1.714   1.754   1.921   1.693   1.702   1.867   1.907   1.929   1.966   1.851   1.924   1.826   1.959   1.765   1.807   1.973   1.999   1.980   1.997   2.070   2.132   2.102   2.088   2.106   1.919   2.012   1.919   1.962   1.828   1.825   1.747   1.659   1.592   1.691   1.601   1.709   1.490   1.545   1.588   1.486   1.549   1.574   1.561   1.648   1.524   1.493   1.399   1.464   1.494   1.507   1.470   1.545   1.618   1.720   1.770   1.791
    51.00    1.811   1.910   1.933   1.901   1.835   1.824   1.812   1.902   1.781   1.712   1.737   1.745   1.813   1.772   1.748   1.664   1.622   1.689   1.750   1.769   1.799   1.831   1.881   1.900   1.998   1.976   1.855   1.944   1.842   1.894   1.929   1.973   2.018   2.105   1.922   1.870   2.092   2.243   2.126   2.266   2.283   2.166   2.101   2.041   2.029   1.886   1.821   1.731   1.710   1.635   1.602   1.655   1.631   1.549   1.451   1.684   1.651   1.668   1.570   1.513   1.597   1.619   1.580   1.539   1.615   1.533   1.457   1.488   1.480   1.604   1.716   1.750   1.831
[...]
   161.00    1.163   1.116   1.107   1.108   1.108   1.118   1.147   1.174   1.182   1.166   1.203   1.176   1.276   1.300   1.273   1.257   1.267   1.254   1.276   1.264   1.189   1.181   1.147   1.135   1.137   1.176   1.121   1.170   1.211   1.216   1.220   1.176   1.184   1.102   1.093   1.113   1.124   1.104   1.127   1.128   1.088   1.112   1.128   1.120   1.158   1.132   1.169   1.174   1.146   1.140   1.190   1.151   1.129   1.123   1.097   1.134   1.131   1.152   1.152   1.113   1.106   1.097   1.116   1.145   1.158   1.161   1.176   1.146   1.167   1.164   1.172   1.151   1.143
   156.00    1.124   1.132   1.098   1.100   1.113   1.099   1.166   1.165   1.160   1.203   1.180   1.155   1.274   1.333   1.321   1.297   1.251   1.262   1.239   1.258   1.224   1.198   1.183   1.203   1.180   1.163   1.146   1.162   1.214   1.190   1.159   1.171   1.147   1.119   1.083   1.107   1.118   1.111   1.137   1.170   1.110   1.115   1.109   1.124   1.146   1.159   1.150   1.171   1.152   1.178   1.175   1.107   1.101   1.107   1.117   1.147   1.144   1.151   1.140   1.082   1.099   1.108   1.094   1.134   1.142   1.167   1.176   1.152   1.162   1.169   1.159   1.181   1.139
   151.00    1.102   1.143   1.116   1.112   1.096   1.122   1.115   1.139   1.187   1.189   1.179   1.210   1.280   1.260   1.225   1.290   1.227   1.261   1.225   1.224   1.241   1.232   1.207   1.189   1.194   1.180   1.181   1.259   1.235   1.186   1.189   1.177   1.148   1.103   1.099   1.091   1.134   1.149   1.157   1.176   1.124   1.087   1.108   1.136   1.153   1.168   1.077   1.123   1.156   1.152   1.143   1.139   1.110   1.097   1.100   1.116   1.068   1.148   1.117   1.109   1.080   1.079   1.118   1.172   1.140   1.134   1.174   1.165   1.167   1.147   1.168   1.235   1.201
   146.00    1.145   1.186   1.124   1.146   1.206   1.140   1.141   1.147   1.141   1.161   1.206   1.232   1.225   1.174   1.244   1.240   1.230   1.220   1.204   1.212   1.242   1.232   1.245   1.203   1.163   1.167   1.154   1.228   1.217   1.233   1.201   1.175   1.155   1.083   1.142   1.139   1.149   1.188   1.129   1.136   1.136   1.085   1.073   1.111   1.150   1.160   1.147   1.144   1.149   1.111   1.103   1.123   1.147   1.125   1.105   1.124   1.117   1.141   1.137   1.163   1.134   1.173   1.165   1.127   1.163   1.107   1.106   1.158   1.188   1.181   1.166   1.257   1.231
   141.00    1.140   1.158   1.194   1.169   1.155   1.185   1.163   1.176   1.172   1.163   1.217   1.274   1.228   1.228   1.245   1.213   1.254   1.196   1.214   1.229   1.215   1.167   1.214   1.220   1.180   1.218   1.203   1.198   1.192   1.150   1.160   1.175   1.121   1.135   1.142   1.130   1.163   1.138   1.160   1.130   1.158   1.117   1.069   1.090   1.096   1.122   1.182   1.130   1.150   1.138   1.117   1.147   1.127   1.113   1.115   1.136   1.164   1.117   1.125   1.119   1.132   1.178   1.223   1.157   1.142   1.103   1.164   1.153   1.174   1.182   1.161   1.179   1.182
   136.00    1.122   1.170   1.230   1.226   1.156   1.163   1.142   1.152   1.134   1.127   1.197   1.257   1.195   1.234   1.194   1.235   1.247   1.199   1.193   1.169   1.189   1.183   1.181   1.208   1.236   1.282   1.245   1.201   1.165   1.157   1.127   1.195   1.213   1.194   1.250   1.191   1.204   1.163   1.121   1.142   1.128   1.102   1.108   1.138   1.133   1.111   1.095   1.114   1.117   1.115   1.134   1.140   1.120   1.130   1.133   1.148   1.189   1.150   1.152   1.142   1.152   1.188   1.212   1.176   1.178   1.156   1.194   1.154   1.172   1.157   1.158   1.134   1.180
   131.00    1.151   1.207   1.215   1.202   1.178   1.171   1.196   1.165   1.148   1.152   1.133   1.190   1.179   1.159   1.171   1.178   1.185   1.219   1.138   1.142   1.175   1.203   1.196   1.213   1.229   1.232   1.216   1.211   1.163   1.146   1.183   1.166   1.192   1.215   1.215   1.194   1.195   1.194   1.162   1.070   1.076   1.103   1.144   1.187   1.185   1.102   1.092   1.092   1.092   1.125   1.080   1.102   1.128   1.113   1.147   1.146   1.155   1.162   1.152   1.107   1.140   1.177   1.227   1.212   1.182   1.157   1.124   1.120   1.112   1.128   1.127   1.179   1.133
   126.00    1.182   1.210   1.197   1.190   1.192   1.200   1.155   1.130   1.171   1.160   1.172   1.162   1.146   1.173   1.186   1.179   1.147   1.183   1.183   1.176   1.175   1.185   1.211   1.176   1.220   1.192   1.211   1.157   1.178   1.131   1.193   1.224   1.224   1.209   1.222   1.182   1.174   1.202   1.159   1.106   1.064   1.126   1.159   1.130   1.160   1.138   1.117   1.107   1.111   1.125   1.088   1.080   1.093   1.124   1.168   1.161   1.135   1.128   1.163   1.137   1.180   1.160   1.143   1.141   1.131   1.158   1.107   1.112   1.110   1.139   1.149   1.178   1.199
   121.00    1.154   1.181   1.184   1.197   1.249   1.221   1.178   1.103   1.114   1.164   1.196   1.221   1.186   1.214   1.163   1.145   1.201   1.224   1.222   1.141   1.166   1.187   1.203   1.247   1.189   1.193   1.185   1.197   1.190   1.178   1.238   1.211   1.240   1.212   1.208   1.188   1.164   1.152   1.165   1.120   1.103   1.107   1.117   1.129   1.098   1.130   1.143   1.118   1.120   1.055   1.090   1.123   1.079   1.151   1.207   1.163   1.131   1.163   1.180   1.155   1.112   1.151   1.108   1.145   1.141   1.149   1.111   1.109   1.123   1.136   1.137   1.142   1.201
   116.00    1.173   1.178   1.212   1.216   1.252   1.195   1.167   1.151   1.140   1.196   1.207   1.233   1.198   1.164   1.157   1.147   1.180   1.175   1.159   1.152   1.167   1.165   1.184   1.186   1.175   1.144   1.206   1.235   1.217   1.145   1.174   1.191   1.175   1.218   1.216   1.199   1.177   1.166   1.190   1.135   1.095   1.158   1.117   1.131   1.125   1.126   1.146   1.116   1.150   1.132   1.143   1.176   1.133   1.120   1.169   1.175   1.167   1.206   1.194   1.113   1.130   1.114   1.136   1.099   1.107   1.140   1.111   1.124   1.122   1.124   1.155   1.149   1.140
   111.00    1.135   1.157   1.187   1.198   1.223   1.171   1.154   1.151   1.141   1.177   1.168   1.197   1.185   1.159   1.168   1.188   1.171   1.118   1.153   1.157   1.148   1.175   1.206   1.226   1.197   1.207   1.217   1.212   1.173   1.087   1.129   1.144   1.153   1.193   1.233   1.142   1.170   1.221   1.157   1.114   1.125   1.129   1.114   1.124   1.127   1.116   1.177   1.168   1.192   1.184   1.188   1.201   1.161   1.182   1.185   1.220   1.201   1.207   1.172   1.123   1.136   1.121   1.124   1.123   1.173   1.161   1.169   1.136   1.093   1.122   1.118   1.161   1.141
   106.00    1.172   1.163   1.220   1.241   1.201   1.165   1.153   1.158   1.160   1.155   1.183   1.181   1.177   1.179   1.214   1.207   1.139   1.124   1.132   1.143   1.146   1.215   1.241   1.247   1.209   1.163   1.125   1.164   1.110   1.064   1.100   1.126   1.119   1.126   1.167   1.163   1.152   1.168   1.151   1.155   1.141   1.129   1.140   1.152   1.124   1.119   1.136   1.145   1.206   1.183   1.214   1.215   1.211   1.171   1.236   1.240   1.203   1.185   1.170   1.155   1.125   1.122   1.118   1.089   1.144   1.146   1.140   1.131   1.121   1.134   1.138   1.150   1.161
   101.00    1.157   1.193   1.212   1.222   1.139   1.159   1.179   1.173   1.172   1.182   1.180   1.213   1.194   1.161   1.147   1.170   1.112   1.073   1.117   1.119   1.148   1.177   1.218   1.236   1.183   1.146   1.107   1.095   1.123   1.098   1.094   1.108   1.148   1.153   1.162   1.146   1.127   1.139   1.131   1.158   1.150   1.161   1.145   1.136   1.151   1.104   1.138   1.172   1.221   1.197   1.192   1.193   1.203   1.174   1.200   1.207   1.212   1.155   1.138   1.171   1.180   1.134   1.087   1.107   1.092   1.137   1.142   1.118   1.155   1.141   1.153   1.132   1.130
    96.00    1.187   1.215   1.175   1.191   1.197   1.150   1.124   1.190   1.197   1.204   1.177   1.169   1.161   1.180   1.164   1.142   1.148   1.122   1.138   1.114   1.124   1.159   1.183   1.220   1.148   1.103   1.100   1.127   1.145   1.165   1.155   1.138   1.181   1.152   1.090   1.095   1.140   1.148   1.156   1.101   1.152   1.177   1.129   1.112   1.134   1.151   1.133   1.150   1.156   1.167   1.161   1.159   1.173   1.210   1.178   1.169   1.194   1.158   1.137   1.135   1.151   1.097   1.074   1.116   1.102   1.113   1.098   1.146   1.144   1.136   1.146   1.127   1.119
    91.00    1.193   1.219   1.147   1.142   1.161   1.172   1.132   1.191   1.202   1.204   1.148   1.158   1.190   1.192   1.169   1.160   1.146   1.152   1.079   1.086   1.068   1.134   1.178   1.170   1.104   1.173   1.123   1.138   1.134   1.159   1.179   1.119   1.153   1.167   1.107   1.121   1.127   1.166   1.191   1.167   1.170   1.123   1.118   1.159   1.148   1.129   1.115   1.164   1.130   1.173   1.170   1.152   1.169   1.218   1.197   1.176   1.183   1.123   1.119   1.173   1.152   1.085   1.087   1.090   1.080   1.117   1.135   1.147   1.165   1.137   1.110   1.085   1.124
    86.00    1.221   1.225   1.175   1.103   1.124   1.137   1.150   1.198   1.213   1.203   1.166   1.128   1.149   1.193   1.173   1.206   1.207   1.187   1.141   1.070   1.058   1.113   1.153   1.180   1.111   1.166   1.154   1.131   1.123   1.123   1.115   1.129   1.131   1.089   1.114   1.109   1.118   1.194   1.210   1.223   1.163   1.154   1.146   1.191   1.149   1.146   1.155   1.104   1.152   1.141   1.153   1.159   1.136   1.192   1.185   1.236   1.225   1.185   1.143   1.168   1.142   1.105   1.082   1.094   1.093   1.132   1.183   1.193   1.181   1.174   1.175   1.182   1.100
    81.00    1.216   1.205   1.185   1.189   1.186   1.192   1.173   1.173   1.146   1.167   1.127   1.118   1.110   1.151   1.202   1.213   1.188   1.150   1.116   1.092   1.122   1.156   1.167   1.145   1.146   1.110   1.135   1.122   1.142   1.125   1.130   1.086   1.085   1.109   1.119   1.111   1.155   1.197   1.224   1.186   1.136   1.213   1.169   1.144   1.154   1.140   1.110   1.074   1.083   1.130   1.151   1.198   1.230   1.206   1.210   1.189   1.174   1.188   1.172   1.132   1.135   1.077   1.061   1.049   1.102   1.177   1.160   1.179   1.145   1.183   1.148   1.127   1.101
    76.00    1.213   1.223   1.184   1.189   1.198   1.193   1.190   1.194   1.159   1.163   1.110   1.132   1.184   1.186   1.195   1.152   1.159   1.161   1.112   1.097   1.108   1.159   1.101   1.131   1.093   1.135   1.130   1.162   1.099   1.128   1.105   1.100   1.133   1.127   1.100   1.113   1.158   1.161   1.154   1.233   1.203   1.220   1.148   1.138   1.101   1.111   1.094   1.075   1.097   1.119   1.098   1.186   1.232   1.221   1.278   1.215   1.173   1.100   1.149   1.135   1.084   1.067   1.079   1.086   1.106   1.141   1.156   1.174   1.165   1.137   1.125   1.153   1.147
    71.00    1.224   1.202   1.151   1.152   1.182   1.190   1.164   1.157   1.177   1.198   1.153   1.130   1.174   1.177   1.191   1.148   1.172   1.151   1.130   1.122   1.129   1.168   1.116   1.101   1.114   1.155   1.148   1.139   1.147   1.158   1.132   1.101   1.094   1.116   1.089   1.115   1.158   1.172   1.195   1.221   1.272   1.192   1.162   1.130   1.133   1.117   1.126   1.109   1.112   1.142   1.103   1.167   1.187   1.205   1.218   1.219   1.171   1.167   1.090   1.124   1.081   1.065   1.111   1.122   1.121   1.112   1.120   1.106   1.132   1.173   1.161   1.188   1.158
    66.00    1.193   1.164   1.173   1.197   1.178   1.146   1.181   1.101   1.123   1.158   1.131   1.146   1.192   1.173   1.127   1.127   1.117   1.189   1.150   1.145   1.193   1.203   1.157   1.145   1.147   1.134   1.138   1.137   1.142   1.162   1.139   1.155   1.169   1.148   1.153   1.175   1.163   1.190   1.228   1.277   1.257   1.197   1.177   1.118   1.106   1.131   1.158   1.115   1.126   1.151   1.125   1.167   1.180   1.167   1.193   1.200   1.151   1.148   1.092   1.099   1.092   1.097   1.117   1.144   1.125   1.095   1.133   1.155   1.156   1.146   1.177   1.148   1.126
    61.00    1.192   1.148   1.186   1.168   1.185   1.134   1.121   1.096   1.139   1.188   1.119   1.139   1.145   1.146   1.143   1.128   1.132   1.166   1.238   1.188   1.204   1.178   1.152   1.183   1.225   1.155   1.133   1.099   1.147   1.125   1.146   1.166   1.152   1.137   1.167   1.239   1.192   1.182   1.228   1.303   1.269   1.227   1.206   1.163   1.145   1.154   1.153   1.133   1.174   1.198   1.139   1.177   1.143   1.176   1.180   1.179   1.147   1.111   1.162   1.100   1.117   1.129   1.138   1.141   1.116   1.140   1.120   1.169   1.135   1.155   1.170   1.185   1.160
    56.00    1.175   1.208   1.183   1.183   1.171   1.116   1.092   1.084   1.129   1.152   1.138   1.130   1.089   1.133   1.102   1.105   1.154   1.167   1.176   1.187   1.210   1.168   1.114   1.179   1.175   1.116   1.158   1.120   1.131   1.112   1.168   1.130   1.156   1.178   1.206   1.235   1.245   1.198   1.268   1.330   1.279   1.235   1.236   1.175   1.184   1.168   1.179   1.157   1.201   1.167   1.162   1.145   1.150   1.142   1.176   1.166   1.135   1.173   1.169   1.138   1.112   1.127   1.156   1.185   1.139   1.129   1.131   1.139   1.193   1.160   1.164   1.199   1.199
    51.00    1.219   1.227   1.209   1.216   1.156   1.096   1.101   1.125   1.156   1.118   1.103   1.107   1.123   1.094   1.077   1.109   1.109   1.142   1.142   1.153   1.165   1.099   1.135   1.199   1.173   1.162   1.107   1.150   1.131   1.124   1.106   1.098   1.152   1.195   1.230   1.259   1.230   1.249   1.239   1.302   1.305   1.279   1.234   1.184   1.139   1.196   1.187   1.146   1.158   1.185   1.198   1.178   1.183   1.195   1.167   1.159   1.184   1.134   1.213   1.190   1.112   1.110   1.135   1.136   1.125   1.115   1.114   1.186   1.168   1.181   1.227   1.237   1.194
    46.00    1.232   1.248   1.201   1.218   1.146   1.135   1.150   1.151   1.168   1.117   1.088   1.091   1.098   1.148   1.150   1.130   1.110   1.136   1.106   1.151   1.125   1.146   1.134   1.209   1.134   1.131   1.102   1.113   1.096   1.090   1.125   1.100   1.176   1.218   1.243   1.237   1.224   1.185   1.247   1.262   1.297   1.253   1.261   1.223   1.168   1.185   1.176   1.165   1.110   1.148   1.179   1.214   1.246   1.238   1.172   1.166   1.139   1.162   1.192   1.176   1.180   1.133   1.159   1.099   1.107   1.147   1.146   1.171   1.232   1.253   1.263   1.246   1.217
    41.00    1.211   1.236   1.208   1.232   1.167   1.152   1.196   1.201   1.149   1.163   1.144   1.132   1.133   1.143   1.129   1.113   1.156   1.153   1.151   1.147   1.150   1.153   1.138   1.161   1.139   1.165   1.132   1.110   1.130   1.136   1.095   1.139   1.170   1.205   1.212   1.220   1.216   1.237   1.271   1.251   1.258   1.247   1.258   1.243   1.234   1.158   1.135   1.149   1.145   1.138   1.171   1.205   1.215   1.144   1.145   1.141   1.175   1.179   1.200   1.152   1.143   1.131   1.149   1.117   1.126   1.109   1.118   1.184   1.164   1.202   1.278   1.222   1.207
    36.00    1.202   1.204   1.184   1.198   1.195   1.167   1.206   1.193   1.166   1.173   1.159   1.145   1.175   1.179   1.110   1.125   1.140   1.151   1.189   1.196   1.158   1.136   1.158   1.136   1.128   1.186   1.145   1.122   1.154   1.206   1.144   1.090   1.172   1.175   1.187   1.218   1.215   1.272   1.232   1.191   1.214   1.236   1.229   1.223   1.231   1.168   1.151   1.124   1.172   1.229   1.158   1.171   1.200   1.158   1.134   1.147   1.141   1.137   1.131   1.174   1.174   1.186   1.159   1.140   1.121   1.118   1.141   1.141   1.128   1.207   1.244   1.270   1.183
    31.00    1.236   1.220   1.144   1.191   1.164   1.143   1.169   1.159   1.154   1.133   1.154   1.204   1.201   1.158   1.149   1.159   1.157   1.147   1.228   1.217   1.154   1.134   1.187   1.168   1.209   1.240   1.158   1.170   1.111   1.157   1.147   1.097   1.142   1.191   1.188   1.191   1.226   1.280   1.244   1.246   1.254   1.225   1.261   1.225   1.221   1.188   1.155   1.109   1.132   1.184   1.191   1.188   1.191   1.174   1.163   1.163   1.166   1.121   1.105   1.143   1.187   1.169   1.179   1.175   1.137   1.177   1.125   1.119   1.168   1.198   1.220   1.252   1.212
    26.00    1.237   1.207   1.214   1.177   1.109   1.114   1.107   1.125   1.142   1.160   1.177   1.168   1.172   1.206   1.180   1.171   1.163   1.199   1.205   1.198   1.173   1.165   1.194   1.186   1.227   1.168   1.163   1.137   1.172   1.139   1.121   1.147   1.141   1.185   1.162   1.207   1.232   1.246   1.218   1.230   1.264   1.195   1.198   1.236   1.189   1.171   1.138   1.150   1.121   1.159   1.191   1.167   1.149   1.154   1.176   1.191   1.136   1.126   1.143   1.136   1.194   1.244   1.194   1.150   1.113   1.166   1.134   1.128   1.147   1.185   1.192   1.207   1.184
    21.00    1.181   1.186   1.221   1.211   1.121   1.136   1.137   1.120   1.127   1.126   1.187   1.138   1.206   1.182   1.209   1.157   1.196   1.192   1.176   1.165   1.158   1.208   1.183   1.150   1.223   1.163   1.176   1.129   1.141   1.137   1.143   1.155   1.217   1.196   1.198   1.198   1.232   1.213   1.231   1.194   1.214   1.239   1.202   1.197   1.178   1.173   1.183   1.179   1.141   1.183   1.158   1.167   1.199   1.205   1.164   1.180   1.149   1.128   1.114   1.156   1.199   1.215   1.176   1.182   1.134   1.124   1.140   1.128   1.145   1.170   1.201   1.247   1.238
    16.00    1.187   1.228   1.189   1.172   1.169   1.110   1.106   1.160   1.177   1.151   1.126   1.175   1.210   1.209   1.192   1.158   1.198   1.167   1.112   1.149   1.175   1.206   1.164   1.162   1.185   1.142   1.207   1.144   1.105   1.144   1.210   1.224   1.268   1.196   1.189   1.186   1.218   1.196   1.186   1.181   1.182   1.202   1.173   1.204   1.210   1.178   1.217   1.224   1.232   1.228   1.181   1.143   1.167   1.232   1.189   1.166   1.188   1.164   1.193   1.205   1.178   1.174   1.170   1.129   1.182   1.133   1.150   1.157   1.159   1.170   1.165   1.220   1.217
    11.00    1.239   1.250   1.211   1.166   1.164   1.164   1.131   1.149   1.133   1.082   1.113   1.143   1.177   1.178   1.222   1.164   1.166   1.191   1.176   1.163   1.173   1.158   1.161   1.176   1.140   1.163   1.199   1.172   1.127   1.168   1.217   1.255   1.299   1.310   1.179   1.148   1.172   1.200   1.216   1.202   1.223   1.188   1.186   1.200   1.226   1.220   1.273   1.222   1.185   1.183   1.205   1.198   1.176   1.220   1.223   1.196   1.186   1.203   1.133   1.143   1.151   1.155   1.165   1.151   1.205   1.160   1.201   1.153   1.193   1.177   1.154   1.166   1.179
     6.00    1.244   1.233   1.245   1.190   1.152   1.144   1.081   1.124   1.096   1.106   1.144   1.180   1.168   1.168   1.211   1.168   1.166   1.172   1.142   1.151   1.173   1.142   1.139   1.124   1.194   1.183   1.218   1.256   1.227   1.185   1.235   1.285   1.289   1.325   1.216   1.177   1.194   1.148   1.190   1.172   1.184   1.177   1.178   1.217   1.225   1.224   1.273   1.232   1.194   1.190   1.166   1.188   1.207   1.240   1.233   1.219   1.253   1.269   1.197   1.190   1.199   1.183   1.148   1.170   1.183   1.196   1.164   1.150   1.175   1.136   1.170   1.159   1.148
     1.00    1.172   1.201   1.193   1.170   1.141   1.151   1.113   1.126   1.122   1.109   1.125   1.151   1.156   1.145   1.152   1.192   1.149   1.155   1.179   1.167   1.170   1.138   1.161   1.159   1.167   1.218   1.268   1.270   1.237   1.254   1.248   1.290   1.247   1.319   1.221   1.226   1.217   1.209   1.190   1.173   1.167   1.142   1.193   1.169   1.217   1.227   1.263   1.278   1.209   1.216   1.187   1.198   1.197   1.218   1.256   1.319   1.250   1.262   1.200   1.202   1.251   1.211   1.157   1.199   1.238   1.246   1.196   1.195   1.195   1.152   1.190   1.176   1.153

   Mean standard deviation across all grid points:
      u component:    2.159 m/s
      v component:    1.814 m/s
      w component:    1.164 m/s


U-component (X) statistics from the interpolated hub point:

   Mean =  11.6748 m/s
   TI   =  17.4826 %


Processing complete.  10989 CPU seconds used.
