
This summary file was generated by TurbSim (from OpenFAST-v3.3.0) on 09-Jan-2023 at 13:48:33.


Runtime Options:

         1  Random seed #1
         8  Random seed #2
         F  Output binary HH turbulence parameters?
         F  Output formatted turbulence parameters?
         F  Output AeroDyn HH files?
         T  Output AeroDyn FF files?
         F  Output BLADED FF files?
         F  Output tower data?
         F  Output HAWC FF files?
         F  Output formatted FF files?
         T  Output coherent turbulence time step file?
 0 -  NONE  IEC turbulence models scaled to exact specified standard deviation


Turbine/Model Specifications:

        61  Vertical grid-point matrix dimension
        73  Horizontal grid-point matrix dimension
     0.100  Time step [seconds]
   600.000  Analysis time [seconds]
   600.000  Usable output time [seconds]
   151.000  Hub height [m]
   300.000  Grid height [m]
   360.000  Grid width [m]
     0.000  Vertical flow angle [degrees]
     0.000  Horizontal flow angle [degrees]


Meteorological Boundary Conditions:

    TIMESR  User-input time series spectral model
       N/A  IEC standard
       N/A  IEC turbulence characteristic
       N/A  IEC turbulence type
       N/A  IEC Extreme Turbulence Model (ETM) "c" parameter [m/s]
       PL   Wind profile type
   119.000  Reference height [m]
    11.400  Reference wind speed [m/s]
       N/A  Jet height [m]
     0.100  Power law exponent
     0.030  Surface roughness length [m]


Non-IEC Meteorological Boundary Conditions:

    45.000  Site latitude [degrees]
     0.050  Gradient Richardson number
     0.529  Friction or shear velocity [m/s]
       N/A  Mixing layer depth [m]
       N/A  Mean hub u'w' Reynolds stress
       N/A  Mean hub u'v' Reynolds stress
       N/A  Mean hub v'w' Reynolds stress


Spatial Coherence Models:

       IEC  u-component coherence model
       IEC  v-component coherence model
       IEC  w-component coherence model
(   12.000, 0.659E-03)  u-component coherence parameters
(   12.000, 0.659E-03)  v-component coherence parameters
(   12.000, 0.659E-03)  w-component coherence parameters
       N/A  Coherence exponent


Coherent Turbulence Scaling Parameters:

.\EventData
            Name of the path containing the coherent turbulence data files
       les  Type of coherent turbulence data files
     1.000  Disturbance scale (ratio of wave height to rotor diameter)
     0.500  Fractional location of tower centerline from right
     0.500  Fractional location of hub height from the bottom of the dataset
    30.000  Minimum start time for coherent structures [seconds]


Profiles from User-Defined Time-Series Input:

  Height   Wind Speed   Horizontal Angle   Vertical Angle
   (m)        (m/s)          (deg)              (deg)    
  ------   ----------   ----------------   --------------
  119.00      11.47           0.00                0.00


You have requested that the following file(s) be generated:

   HighT9.bts (AeroDyn/TurbSim full-field wind file)


Turbulence Simulation Scaling Parameter Summary:

   Turbulence model used                            =  User-input time series
   Gradient Richardson number                       =    0.050
   Monin-Obukhov (M-O) z/L parameter                =    0.067
   Monin-Obukhov (M-O) length scale                 = 2265.000 m
   Mean wind speed at hub height                    =   11.675 m/s

   Wind profile type                                =  Power law
   Power law exponent                               =    0.100
   Mean shear across rotor disk                     =    0.018 (m/s)/m
   Assumed rotor diameter                           =  300.000 m
   Surface roughness length                         =    0.030 m

   Nyquist frequency of turbulent wind field        =    5.000 Hz

   Number of time steps in the FFT                  =     6000
   Number of time steps output                      =     6000
   Number of points simulated                       =     4454


Mean Flow Angles:

   Vertical   =   0.0 degrees
   Horizontal =   0.0 degrees

Mean Wind Speed Profile:

   Height    Wind Speed   Horizontal Angle  Vertical Angle  U-comp (X)   V-comp (Y)   W-comp (Z)
     (m)        (m/s)         (degrees)       (degrees)       (m/s)        (m/s)        (m/s)   
   ------    ----------   ----------------  --------------  ----------   ----------   ----------
    301.0       12.51            0.00            0.00         12.51         0.00         0.00
    296.0       12.49            0.00            0.00         12.49         0.00         0.00
    291.0       12.47            0.00            0.00         12.47         0.00         0.00
    286.0       12.44            0.00            0.00         12.44         0.00         0.00
    281.0       12.42            0.00            0.00         12.42         0.00         0.00
    276.0       12.40            0.00            0.00         12.40         0.00         0.00
    271.0       12.38            0.00            0.00         12.38         0.00         0.00
    266.0       12.35            0.00            0.00         12.35         0.00         0.00
    261.0       12.33            0.00            0.00         12.33         0.00         0.00
    256.0       12.31            0.00            0.00         12.31         0.00         0.00
    251.0       12.28            0.00            0.00         12.28         0.00         0.00
    246.0       12.26            0.00            0.00         12.26         0.00         0.00
    241.0       12.23            0.00            0.00         12.23         0.00         0.00
    236.0       12.21            0.00            0.00         12.21         0.00         0.00
    231.0       12.18            0.00            0.00         12.18         0.00         0.00
    226.0       12.16            0.00            0.00         12.16         0.00         0.00
    221.0       12.13            0.00            0.00         12.13         0.00         0.00
    216.0       12.10            0.00            0.00         12.10         0.00         0.00
    211.0       12.07            0.00            0.00         12.07         0.00         0.00
    206.0       12.04            0.00            0.00         12.04         0.00         0.00
    201.0       12.01            0.00            0.00         12.01         0.00         0.00
    196.0       11.98            0.00            0.00         11.98         0.00         0.00
    191.0       11.95            0.00            0.00         11.95         0.00         0.00
    186.0       11.92            0.00            0.00         11.92         0.00         0.00
    181.0       11.89            0.00            0.00         11.89         0.00         0.00
    176.0       11.85            0.00            0.00         11.85         0.00         0.00
    171.0       11.82            0.00            0.00         11.82         0.00         0.00
    166.0       11.79            0.00            0.00         11.79         0.00         0.00
    161.0       11.75            0.00            0.00         11.75         0.00         0.00
    156.0       11.71            0.00            0.00         11.71         0.00         0.00
    151.0       11.67            0.00            0.00         11.67         0.00         0.00
    146.0       11.64            0.00            0.00         11.64         0.00         0.00
    141.0       11.60            0.00            0.00         11.60         0.00         0.00
    136.0       11.55            0.00            0.00         11.55         0.00         0.00
    131.0       11.51            0.00            0.00         11.51         0.00         0.00
    126.0       11.47            0.00            0.00         11.47         0.00         0.00
    121.0       11.42            0.00            0.00         11.42         0.00         0.00
    116.0       11.37            0.00            0.00         11.37         0.00         0.00
    111.0       11.32            0.00            0.00         11.32         0.00         0.00
    106.0       11.27            0.00            0.00         11.27         0.00         0.00
    101.0       11.21            0.00            0.00         11.21         0.00         0.00
     96.0       11.16            0.00            0.00         11.16         0.00         0.00
     91.0       11.10            0.00            0.00         11.10         0.00         0.00
     86.0       11.04            0.00            0.00         11.04         0.00         0.00
     81.0       10.97            0.00            0.00         10.97         0.00         0.00
     76.0       10.90            0.00            0.00         10.90         0.00         0.00
     71.0       10.83            0.00            0.00         10.83         0.00         0.00
     66.0       10.75            0.00            0.00         10.75         0.00         0.00
     61.0       10.66            0.00            0.00         10.66         0.00         0.00
     56.0       10.57            0.00            0.00         10.57         0.00         0.00
     51.0       10.47            0.00            0.00         10.47         0.00         0.00
     46.0       10.37            0.00            0.00         10.37         0.00         0.00
     41.0       10.25            0.00            0.00         10.25         0.00         0.00
     36.0       10.12            0.00            0.00         10.12         0.00         0.00
     31.0        9.97            0.00            0.00          9.97         0.00         0.00
     26.0        9.79            0.00            0.00          9.79         0.00         0.00
     21.0        9.58            0.00            0.00          9.58         0.00         0.00
     16.0        9.33            0.00            0.00          9.33         0.00         0.00
     11.0        8.98            0.00            0.00          8.98         0.00         0.00
      6.0        8.46            0.00            0.00          8.46         0.00         0.00
      1.0        7.07            0.00            0.00          7.07         0.00         0.00


Harvested Random Seeds after Generation of the Random Numbers:

   2107445636 Harvested seed # 1
   1486380813 Harvested seed # 2


Hub-Height Simulated Turbulence Statistical Summary:

   Type of Wind        Min (m/s)   Mean (m/s)    Max (m/s)  Sigma (m/s)       TI (%)
   ----------------    ---------   ----------    ---------  -----------       ------
   Longitudinal (u)         4.96        11.67        17.07        1.997       17.103
   Lateral (v)             -6.35        -0.00         7.87        1.973       16.899
   Vertical (w)            -4.75         0.00         4.22        1.198       10.263
   U component              4.96        11.67        17.07        1.997       17.103
   V component             -6.35        -0.00         7.87        1.973       16.899
   W component             -4.75         0.00         4.22        1.198       10.263
   Horizontal (U&V)         5.11        11.84        17.13        1.982       16.740
   Total                    5.16        11.91        17.15        1.963       16.485

                       Min Reynolds     Mean Reynolds    Max Reynolds    Correlation
   Product             Stress (m/s)^2   Stress (m/s)^2   Stress (m/s)^2  Coefficient
   ----------------    --------------   --------------   --------------  -----------
   u'w'                    -18.627            -0.150            11.219        -0.063
   u'v'                    -28.848            -0.076            16.103        -0.019
   v'w'                    -17.277             0.005            10.438         0.002


   Friction Velocity (Ustar)  =      0.388 m/s
   Maximum Instantaneous TKE  =     36.876 (m/s)^2
   Maximum Instantaneous CTKE =     15.102 (m/s)^2


Grid Point Variance Summary:

   Y-coord -180.00 -175.00 -170.00 -165.00 -160.00 -155.00 -150.00 -145.00 -140.00 -135.00 -130.00 -125.00 -120.00 -115.00 -110.00 -105.00 -100.00  -95.00  -90.00  -85.00  -80.00  -75.00  -70.00  -65.00  -60.00  -55.00  -50.00  -45.00  -40.00  -35.00  -30.00  -25.00  -20.00  -15.00  -10.00   -5.00    0.00    5.00   10.00   15.00   20.00   25.00   30.00   35.00   40.00   45.00   50.00   55.00   60.00   65.00   70.00   75.00   80.00   85.00   90.00   95.00  100.00  105.00  110.00  115.00  120.00  125.00  130.00  135.00  140.00  145.00  150.00  155.00  160.00  165.00  170.00  175.00  180.00

   Height   Standard deviation at grid points for the u component:
   301.00    2.468   2.264   2.175   2.170   2.021   2.005   2.090   2.169   2.051   1.995   2.059   1.975   1.826   2.054   2.066   1.967   1.942   1.919   1.971   1.965   2.000   1.982   2.051   2.003   1.976   1.944   2.013   2.094   1.975   1.946   1.982   2.166   2.226   2.161   2.141   1.951   1.999   2.191   2.016   2.213   2.446   2.509   2.514   2.595   2.675   2.693   2.632   2.630   2.477   2.523   2.301   2.091   1.862   1.855   1.771   1.726   1.632   1.806   1.905   1.803   1.764   1.845   1.994   1.913   1.962   2.037   2.072   2.047   2.199   2.257   2.161   2.330   2.425
   296.00    2.460   2.293   2.132   1.931   2.005   2.036   2.140   2.108   2.153   2.122   1.989   2.013   1.905   1.906   2.012   1.860   1.984   1.888   1.982   1.906   1.930   1.999   2.031   1.976   1.941   2.124   2.010   1.963   2.036   1.938   2.018   2.081   2.181   2.128   2.030   2.082   2.000   2.140   2.161   2.234   2.521   2.472   2.472   2.787   2.778   2.854   2.756   2.779   2.637   2.415   2.143   2.000   1.833   1.808   1.827   1.796   1.759   1.803   1.802   1.910   1.818   1.928   1.865   1.994   1.961   2.058   1.957   1.991   2.043   2.022   2.205   2.102   2.364
   291.00    2.389   2.168   2.149   2.035   1.940   1.968   2.164   2.228   2.070   2.056   2.021   1.964   2.006   1.885   1.981   1.991   2.033   1.981   1.799   1.886   1.925   2.060   2.115   1.873   1.965   2.061   1.973   2.051   2.185   2.104   2.070   2.187   2.040   2.187   2.175   2.127   2.140   1.903   2.004   2.227   2.332   2.379   2.623   2.671   2.816   2.746   2.546   2.552   2.365   2.248   1.958   1.834   1.942   1.753   1.914   1.917   1.905   1.857   1.974   1.860   1.889   1.975   2.126   1.986   1.938   1.961   1.885   1.916   1.909   2.011   1.933   2.151   2.280
   286.00    2.365   2.172   2.058   2.061   2.004   2.045   1.999   2.188   2.124   2.121   1.967   2.061   1.981   1.997   1.928   1.983   2.012   1.833   1.752   1.764   2.014   2.006   1.998   1.912   2.042   1.954   1.905   2.016   2.112   2.052   2.042   2.264   2.155   2.066   2.073   1.977   2.020   1.938   2.125   2.248   2.167   2.302   2.448   2.636   2.594   2.745   2.376   2.326   2.324   2.216   2.037   2.052   1.878   1.878   1.746   1.813   1.858   1.914   1.947   1.901   2.045   1.994   2.049   1.975   1.924   1.967   2.092   1.898   1.981   1.871   1.963   2.058   2.098
   281.00    2.463   2.188   2.182   2.050   2.030   2.113   2.048   2.113   2.096   2.033   2.088   2.053   2.030   2.000   1.826   1.802   1.786   1.688   1.736   1.833   2.005   1.914   1.924   1.864   1.943   2.024   1.884   1.862   2.038   2.205   2.199   2.212   2.089   2.058   1.896   1.766   1.869   1.914   1.999   2.080   2.112   2.415   2.437   2.603   2.557   2.738   2.398   2.217   2.146   2.179   1.972   2.065   1.889   1.857   1.959   1.876   1.866   1.946   1.902   1.919   2.041   1.864   2.090   1.938   1.895   1.937   2.065   1.868   2.035   1.963   1.975   2.038   1.884
   276.00    2.331   2.170   2.212   2.115   2.040   2.095   2.029   2.041   2.069   1.970   1.958   1.920   1.949   1.898   1.796   1.740   1.703   1.675   1.941   1.969   1.976   1.814   1.807   1.868   1.809   1.970   1.884   1.953   2.026   2.162   2.315   2.182   2.159   1.972   1.903   1.798   1.942   1.933   2.107   2.273   2.285   2.290   2.393   2.427   2.450   2.558   2.577   2.272   2.199   2.058   1.983   2.035   1.854   1.885   1.831   1.688   1.972   1.975   2.027   2.065   2.001   2.045   1.914   2.068   2.052   2.062   2.034   2.032   2.095   1.856   1.961   1.959   1.886
   271.00    2.216   2.156   2.067   2.017   1.902   1.921   2.070   2.108   1.959   1.958   1.849   1.993   1.937   1.743   1.855   1.747   1.748   1.762   1.897   1.973   2.071   2.013   1.909   1.921   1.893   1.872   1.874   1.987   1.992   2.198   2.204   2.225   2.079   2.062   1.853   1.840   1.957   1.873   2.053   2.209   2.209   2.271   2.117   2.287   2.382   2.509   2.341   2.302   2.296   2.173   2.206   2.073   1.940   1.847   1.680   1.861   1.969   1.912   1.956   2.084   2.058   2.042   2.076   2.044   2.122   2.093   2.227   2.048   2.063   1.944   1.970   1.782   1.745
   266.00    1.956   1.938   1.967   2.009   1.947   1.833   1.905   2.085   1.936   1.816   1.890   1.956   2.032   2.004   1.954   1.845   1.773   1.824   1.792   1.936   2.040   1.877   2.100   2.065   2.084   1.970   1.933   1.954   2.082   2.207   2.339   2.271   2.374   2.182   1.915   1.778   1.957   1.856   2.068   2.185   2.165   2.185   2.009   2.087   2.195   2.356   2.325   2.255   2.237   2.257   2.339   2.294   2.021   1.860   1.728   1.857   1.961   2.072   2.055   2.194   2.127   2.272   2.175   1.964   2.027   2.024   2.063   2.083   1.934   1.817   1.923   1.825   1.798
   261.00    1.855   1.779   1.808   1.941   1.877   1.839   1.852   1.980   1.962   1.862   1.825   2.005   2.102   2.066   1.963   1.948   1.831   1.765   1.784   1.786   1.829   1.912   1.847   1.919   2.019   2.044   2.005   2.046   1.971   2.165   2.236   2.156   2.228   2.091   1.926   1.974   1.869   1.938   1.971   2.148   2.045   2.012   2.101   2.116   2.304   2.224   2.272   2.477   2.314   2.351   2.287   1.933   2.006   1.940   2.025   1.948   1.947   1.880   2.040   2.108   2.133   2.090   2.057   1.881   1.883   1.906   1.979   1.886   1.792   1.803   1.877   1.964   1.880
   256.00    1.924   1.822   1.959   1.908   1.997   1.848   1.866   1.882   1.854   1.809   1.930   1.917   2.116   2.102   2.101   1.947   1.764   1.807   1.893   1.873   1.875   1.898   1.806   1.959   2.068   2.012   1.944   1.868   1.961   2.004   1.973   2.196   2.289   2.185   2.146   1.997   1.921   1.998   1.870   1.918   1.964   1.935   2.016   2.198   2.335   2.388   2.441   2.330   2.453   2.235   2.093   2.096   2.104   2.056   2.135   1.946   1.973   2.103   2.161   2.047   2.025   1.957   2.075   2.062   1.906   1.795   1.792   1.868   1.634   1.747   1.906   1.929   1.813
   251.00    2.099   1.994   1.936   1.911   1.949   2.014   1.953   1.903   1.802   1.901   1.909   1.997   2.073   2.125   1.953   1.941   1.995   1.793   1.933   1.901   1.861   1.934   1.904   1.893   2.019   1.941   1.867   1.863   1.968   1.981   1.941   2.139   2.010   2.195   2.112   2.087   2.042   2.098   1.946   1.839   1.854   2.052   1.979   2.192   2.437   2.492   2.499   2.403   2.372   2.206   2.259   2.208   2.110   2.137   2.231   2.067   2.035   2.002   2.090   2.002   2.052   2.063   2.026   1.974   1.889   1.835   1.804   1.896   1.698   1.731   1.803   1.939   1.939
   246.00    2.063   1.955   1.895   2.041   2.063   2.012   2.028   1.999   1.903   1.952   1.903   1.951   1.886   1.898   1.948   2.021   1.872   1.788   1.913   1.974   1.980   2.060   1.922   1.813   1.896   1.954   1.833   1.921   1.903   1.959   1.910   2.116   2.169   2.148   2.149   2.145   2.062   2.120   2.187   2.120   1.845   2.125   2.008   2.147   2.445   2.499   2.369   2.352   2.366   2.359   2.345   2.257   2.215   2.332   2.313   2.371   2.190   2.279   2.169   2.169   2.281   2.445   2.126   2.054   1.893   1.831   1.941   1.910   1.949   1.953   1.890   1.944   1.840
   241.00    2.152   2.173   2.080   2.085   2.147   2.121   2.067   1.976   1.961   1.953   1.848   1.972   1.874   1.878   1.798   1.895   1.833   1.938   1.877   1.863   1.947   1.941   1.898   1.935   1.993   1.978   2.039   1.975   1.997   1.942   1.830   2.015   2.224   2.153   2.106   2.137   2.079   2.160   2.174   2.191   1.996   2.137   2.152   2.277   2.384   2.425   2.314   2.290   2.325   2.430   2.285   2.488   2.467   2.520   2.631   2.481   2.350   2.294   2.166   2.288   2.352   2.317   2.141   1.987   2.128   1.973   1.894   1.963   1.920   1.842   1.887   2.023   2.007
   236.00    2.216   2.123   2.026   2.234   2.142   2.080   2.090   2.047   2.001   1.835   1.905   1.867   1.866   1.745   1.768   1.740   1.777   1.963   1.841   1.972   2.043   1.934   1.968   1.991   2.011   2.162   1.944   1.927   1.842   1.858   1.826   2.076   2.204   2.248   2.246   2.190   2.144   2.167   2.265   2.108   2.163   2.042   2.017   2.083   2.148   2.190   2.180   2.351   2.301   2.294   2.362   2.419   2.401   2.680   2.464   2.544   2.332   2.337   2.265   2.297   2.352   2.425   2.124   2.013   2.039   2.044   1.822   1.803   1.832   1.738   1.866   1.908   1.952
   231.00    2.220   1.991   2.063   2.097   2.083   2.096   2.156   2.010   1.828   1.733   1.909   1.902   1.753   1.691   1.717   1.829   1.829   1.798   1.820   1.889   2.097   1.988   1.932   1.908   1.942   2.032   1.772   1.873   2.110   1.906   1.917   2.107   2.155   2.198   2.164   2.143   2.124   2.109   2.091   2.138   2.024   2.097   2.039   1.990   2.028   2.032   2.184   2.292   2.454   2.622   2.451   2.319   2.347   2.514   2.260   2.385   2.303   2.301   2.137   2.269   2.202   2.198   2.066   2.205   1.977   2.012   1.952   1.767   1.758   1.814   1.873   1.888   1.954
   226.00    2.246   2.198   2.083   2.173   2.067   1.901   1.934   1.878   1.736   1.863   1.785   1.841   1.776   1.730   1.709   1.764   1.868   1.928   1.934   1.894   2.121   2.108   1.940   2.006   2.068   1.831   2.012   2.096   2.102   2.071   2.091   2.278   2.156   2.417   2.309   2.035   2.148   2.223   2.166   2.016   2.108   2.049   2.062   1.989   2.167   2.126   2.264   2.212   2.311   2.463   2.425   2.293   2.251   2.166   2.325   2.299   2.368   2.300   2.153   2.188   2.085   2.128   2.169   2.200   2.198   2.208   1.895   1.828   1.826   1.823   1.815   1.757   1.828
   221.00    2.234   2.258   1.967   2.152   2.049   2.020   1.928   1.795   1.762   1.876   1.738   1.810   1.754   1.807   1.896   1.780   1.851   2.090   2.167   2.127   2.089   2.119   1.898   1.892   2.047   2.004   2.138   2.308   2.204   2.337   2.242   2.424   2.466   2.432   2.340   2.205   2.003   2.086   2.276   1.975   2.042   2.016   2.003   2.110   2.143   2.197   2.268   2.156   2.260   2.342   2.223   2.157   2.191   2.377   2.341   2.309   2.466   2.310   2.153   2.031   2.153   2.146   2.214   2.107   2.120   2.157   1.928   1.894   1.862   1.810   1.733   1.870   1.876
   216.00    2.209   2.260   2.084   2.132   2.093   2.095   1.974   1.959   1.869   1.858   1.779   1.832   1.851   2.017   1.878   1.806   1.986   1.973   2.181   2.293   2.171   2.163   2.109   2.079   2.095   2.159   2.412   2.395   2.423   2.466   2.282   2.482   2.643   2.504   2.390   2.186   2.223   2.213   2.131   2.165   2.269   2.190   2.199   2.136   2.136   2.223   2.165   2.160   2.276   2.181   2.236   2.176   2.387   2.403   2.365   2.438   2.461   2.375   2.135   2.131   2.119   2.058   2.130   1.923   1.962   2.022   2.015   1.978   1.945   1.827   1.737   1.833   1.847
   211.00    2.005   2.167   2.298   2.002   1.998   2.052   1.995   2.001   2.051   2.063   1.910   2.055   1.947   1.824   1.922   1.952   1.907   1.897   2.055   2.337   2.305   2.196   2.257   2.150   2.274   2.245   2.445   2.255   2.533   2.551   2.548   2.565   2.568   2.408   2.410   2.201   2.355   2.272   2.286   2.310   2.256   2.265   2.253   2.359   2.241   2.255   2.329   2.367   2.164   2.231   2.282   2.301   2.309   2.195   2.166   2.279   2.322   2.271   2.149   2.126   2.207   1.981   2.130   2.004   1.963   1.936   1.991   1.988   1.869   1.884   1.761   1.721   1.827
   206.00    2.111   2.083   2.148   1.963   1.889   2.001   1.888   2.073   2.131   2.143   2.205   2.147   2.064   1.911   1.936   1.857   1.800   2.013   2.069   2.282   2.499   2.464   2.366   2.341   2.153   2.305   2.356   2.316   2.367   2.497   2.611   2.558   2.527   2.354   2.202   2.133   2.329   2.270   2.166   2.158   2.126   2.198   2.246   2.327   2.374   2.205   2.298   2.224   2.113   2.341   2.440   2.266   2.185   2.187   2.242   2.218   2.103   2.137   2.070   2.168   1.922   1.975   2.046   1.927   1.873   1.846   1.822   1.807   1.918   1.902   1.786   1.741   1.896
   201.00    2.058   1.943   2.090   1.948   1.881   1.997   1.845   1.895   1.943   2.061   2.206   2.259   2.129   2.051   2.038   2.027   1.900   2.053   2.212   2.202   2.364   2.416   2.205   2.361   2.389   2.253   2.235   2.136   2.296   2.351   2.331   2.519   2.548   2.276   2.284   2.182   2.149   2.070   2.108   2.209   2.229   2.127   2.349   2.450   2.438   2.414   2.142   2.169   2.380   2.247   2.259   2.234   2.207   2.144   2.222   2.269   2.159   2.091   2.223   2.124   1.920   1.842   1.958   1.961   1.820   1.753   1.930   1.755   1.911   1.881   1.763   1.789   1.827
   196.00    2.063   1.795   1.954   2.004   1.848   1.887   1.884   1.888   1.943   1.967   2.223   2.131   2.228   2.310   2.086   2.008   2.012   2.138   1.985   2.119   2.329   2.131   2.263   2.327   2.304   2.143   2.094   2.078   2.077   2.329   2.432   2.391   2.396   2.396   2.159   1.984   2.004   2.063   2.192   2.105   1.978   2.095   2.125   2.246   2.389   2.219   2.125   2.317   2.334   2.154   2.318   2.269   2.244   2.179   2.099   2.152   2.155   2.061   2.199   2.060   1.889   1.985   1.866   1.965   1.721   1.917   2.014   2.027   1.842   1.809   1.875   1.837   1.713
   191.00    1.962   2.003   2.014   1.972   1.764   1.803   1.942   2.049   2.010   2.031   2.022   2.178   2.151   2.018   2.093   2.182   2.180   2.155   2.104   2.066   2.086   2.211   2.278   2.365   2.188   2.141   1.970   2.091   2.139   2.244   2.419   2.390   2.229   2.176   2.134   1.975   2.098   2.219   2.049   2.022   1.953   1.968   2.073   2.262   2.354   2.300   2.358   2.314   2.205   2.360   2.254   2.261   2.221   2.274   2.336   2.369   2.197   2.178   2.114   1.967   1.954   1.903   1.960   2.184   1.995   2.010   2.007   1.973   1.978   2.065   2.084   1.992   1.835
   186.00    1.993   2.089   2.011   1.902   1.835   1.773   1.982   2.035   2.116   2.120   2.275   2.109   2.150   2.161   2.176   2.185   2.137   2.161   2.069   2.033   2.214   2.345   2.253   2.347   2.372   2.245   2.187   2.171   2.173   2.336   2.307   2.260   2.129   2.251   2.129   2.099   2.111   2.236   2.055   2.119   2.127   2.025   2.162   2.175   2.265   2.223   2.325   2.200   2.108   2.257   2.241   2.314   2.230   2.238   2.286   2.284   2.318   2.218   2.220   2.114   2.086   1.975   2.123   2.189   2.020   2.021   2.029   2.080   2.085   2.029   2.036   2.127   2.069
   181.00    2.062   2.079   2.058   1.939   1.892   1.792   2.034   2.111   2.231   2.121   2.173   2.260   2.283   2.131   2.174   2.069   2.105   2.204   2.221   2.328   2.308   2.326   2.468   2.539   2.533   2.497   2.406   2.293   2.215   2.181   2.089   2.157   2.108   2.123   2.269   2.190   2.214   2.136   2.072   2.119   2.021   2.043   2.191   2.215   2.232   2.077   2.183   2.123   2.117   2.224   2.091   2.275   2.284   2.152   2.152   2.195   2.092   2.258   2.326   2.128   2.085   2.125   2.092   2.155   2.149   2.127   2.158   2.096   2.151   2.303   2.281   2.108   2.271
   176.00    2.056   2.115   1.988   2.198   1.997   1.850   1.900   2.113   2.179   2.263   2.236   2.382   2.234   2.202   2.244   2.040   2.064   1.989   2.311   2.333   2.364   2.588   2.697   2.469   2.545   2.360   2.334   2.286   1.999   2.120   2.033   1.869   2.076   2.155   2.129   2.213   2.157   2.217   2.179   2.126   2.100   2.048   1.957   1.961   2.250   2.219   2.193   2.180   2.103   2.313   2.296   2.345   2.308   2.151   2.025   2.012   1.968   2.043   2.096   1.993   2.076   2.215   2.105   2.182   2.235   2.098   2.193   2.210   2.127   2.233   2.209   2.270   2.284
   171.00    2.101   2.138   2.165   2.077   2.005   1.867   1.921   1.879   2.041   2.150   2.104   2.397   2.463   2.290   2.128   2.170   2.291   2.302   2.606   2.502   2.725   2.710   2.647   2.486   2.713   2.484   2.249   2.208   1.955   2.009   1.998   1.804   1.865   2.067   2.057   2.080   2.148   2.243   2.098   2.058   1.802   1.893   2.111   2.243   2.386   2.418   2.277   2.162   2.171   2.266   2.232   2.321   2.330   2.069   2.037   1.950   2.095   1.977   2.107   1.970   2.071   2.184   2.139   2.028   2.261   2.071   2.199   2.312   2.293   2.198   2.217   2.315   2.247
   166.00    2.092   2.149   2.084   2.020   1.873   1.821   1.844   2.016   1.951   1.990   2.083   2.257   2.400   2.371   2.257   2.379   2.387   2.431   2.681   2.612   2.626   2.654   2.611   2.534   2.687   2.531   2.562   2.319   2.103   1.900   2.052   1.836   1.921   1.939   1.897   2.158   2.216   2.329   2.183   2.014   2.026   1.975   2.029   2.251   2.448   2.552   2.337   2.360   2.165   2.347   2.335   2.169   2.213   2.037   2.043   1.987   1.920   2.053   2.188   2.109   2.170   2.179   2.086   2.254   2.241   2.033   2.170   2.294   2.204   2.176   2.161   2.317   2.165
   161.00    1.941   2.013   1.964   1.956   1.845   1.776   1.925   1.911   2.008   1.832   1.870   2.137   2.307   2.323   2.319   2.548   2.533   2.412   2.609   2.629   2.733   2.659   2.758   2.728   2.681   2.614   2.461   2.393   2.050   1.907   1.686   1.912   1.814   2.187   2.061   2.180   2.276   2.273   2.226   2.048   1.976   1.926   1.993   2.252   2.494   2.430   2.417   2.513   2.502   2.490   2.333   2.141   2.236   2.088   2.048   2.076   1.990   2.007   2.024   2.134   2.002   1.841   1.946   2.180   2.127   2.034   2.141   2.179   2.178   2.019   2.044   2.234   2.035
   156.00    1.897   2.007   1.955   1.985   2.028   1.883   1.942   1.993   2.045   2.000   2.043   2.180   2.395   2.563   2.447   2.505   2.707   2.553   2.775   2.831   2.871   2.668   2.707   2.793   2.686   2.405   2.455   2.330   1.995   1.864   1.769   1.899   1.909   1.961   1.951   2.064   2.181   2.191   2.285   2.000   2.067   2.044   2.158   2.405   2.580   2.453   2.604   2.450   2.466   2.416   2.326   2.347   2.230   2.053   2.067   2.023   1.990   2.072   2.162   2.018   2.000   1.843   1.875   2.054   2.071   2.130   2.089   1.996   1.950   1.993   2.050   2.107   2.046
   151.00    1.958   1.978   1.979   1.905   1.983   1.931   1.936   2.057   2.065   2.113   2.067   2.342   2.269   2.359   2.369   2.333   2.508   2.578   2.683   2.734   2.755   2.580   2.621   2.634   2.464   2.400   2.210   2.138   1.813   1.865   1.769   1.867   1.957   1.877   1.929   1.842   1.997   2.158   2.203   2.197   1.990   2.307   2.429   2.377   2.444   2.526   2.500   2.561   2.498   2.459   2.351   2.323   2.165   2.227   2.125   2.127   1.974   2.077   1.983   1.956   1.996   1.829   1.834   1.888   2.025   2.098   2.183   2.015   2.154   2.283   2.320   2.184   2.242
   146.00    2.041   2.040   2.086   2.021   1.888   1.949   1.887   1.836   2.027   2.216   2.309   2.330   2.303   2.279   2.362   2.371   2.605   2.588   2.636   2.557   2.518   2.463   2.657   2.572   2.468   2.283   2.111   1.854   1.828   1.886   1.835   1.930   2.118   2.003   1.935   1.909   1.977   2.158   2.189   2.272   2.350   2.196   2.178   2.144   2.299   2.196   2.216   2.382   2.399   2.322   2.312   2.264   2.184   2.328   2.150   2.072   2.016   1.983   1.930   1.937   1.914   1.977   2.009   2.005   1.809   1.923   2.024   2.049   2.173   2.257   2.466   2.337   2.258
   141.00    2.003   2.090   1.994   2.052   2.089   2.060   1.969   1.986   2.066   2.179   2.289   2.354   2.257   2.152   2.016   2.127   2.353   2.446   2.603   2.381   2.460   2.632   2.509   2.472   2.248   2.037   1.906   1.965   1.932   1.903   2.044   1.950   1.990   1.918   2.042   1.957   2.085   2.195   2.193   2.241   2.300   2.198   2.211   1.974   2.002   2.164   2.298   2.250   2.292   2.187   2.064   2.246   2.129   2.158   2.143   2.019   1.985   1.997   1.820   1.833   1.868   1.963   1.965   1.914   1.960   1.808   1.897   1.962   2.096   2.173   2.262   2.300   2.265
   136.00    2.015   1.963   1.986   2.058   2.081   2.133   2.137   2.194   2.120   2.120   2.246   2.283   2.321   2.132   2.143   2.162   2.269   2.276   2.419   2.325   2.494   2.534   2.631   2.535   2.239   1.988   2.012   1.901   1.912   1.857   1.897   1.754   1.874   1.970   1.867   1.958   1.971   1.984   1.960   1.994   2.061   2.251   2.316   2.002   1.977   2.066   2.099   2.053   2.240   2.113   2.260   2.223   2.151   2.251   2.099   2.063   1.984   2.000   1.918   1.884   2.083   2.044   1.986   2.042   1.771   1.916   1.817   1.878   1.992   2.094   2.262   2.016   2.194
   131.00    1.859   1.969   1.980   2.127   2.133   2.119   2.134   2.210   2.215   2.367   2.366   2.385   2.315   2.027   2.041   2.128   2.025   2.112   2.332   2.235   2.416   2.558   2.707   2.469   2.314   2.068   2.052   1.937   1.871   1.885   2.000   1.947   1.800   1.875   1.858   1.748   1.951   1.818   1.923   1.941   2.178   2.253   2.090   2.094   2.043   1.975   2.039   2.017   2.125   2.028   2.213   2.270   2.274   2.271   2.162   2.191   2.104   2.157   2.136   2.046   2.130   2.017   1.965   1.974   1.871   1.919   1.863   1.759   1.896   1.981   2.112   2.047   2.083
   126.00    1.826   1.906   1.891   1.942   2.135   2.182   2.063   2.148   2.251   2.167   2.357   2.469   2.451   2.166   1.990   1.983   2.191   2.139   2.262   2.203   2.319   2.358   2.446   2.635   2.409   2.029   1.984   1.920   1.847   1.840   1.902   1.955   1.792   1.961   1.980   1.862   1.943   1.994   1.969   1.963   2.170   2.137   2.081   2.121   2.081   1.909   2.029   1.971   2.087   2.103   2.247   2.070   2.150   2.241   2.220   2.332   2.308   2.108   2.059   2.071   2.117   2.151   2.058   1.954   1.829   1.861   1.786   1.833   1.864   1.839   1.965   2.051   1.947
   121.00    1.831   1.922   2.004   1.960   2.224   2.108   2.233   2.175   2.166   2.312   2.416   2.452   2.348   2.107   2.065   2.028   1.891   2.016   2.198   2.288   2.317   2.174   2.283   2.360   2.263   2.127   1.882   1.829   1.744   1.774   1.860   1.883   1.861   1.964   2.006   2.058   2.129   2.004   2.041   2.240   2.243   2.019   2.141   2.165   2.246   2.101   1.943   2.000   2.036   2.043   2.191   2.129   2.251   2.198   2.314   2.384   2.312   2.086   2.028   2.072   2.064   2.135   2.017   1.920   1.974   1.936   1.812   1.923   1.877   1.869   1.980   1.993   1.902
   116.00    1.962   1.971   1.909   2.019   2.140   2.213   2.314   2.206   2.340   2.478   2.405   2.399   2.187   2.238   2.049   2.044   1.917   1.963   2.051   2.053   2.155   2.138   2.101   2.184   2.211   1.984   1.867   1.746   1.649   1.795   1.921   1.863   1.946   2.234   2.033   2.118   2.210   2.177   2.137   2.242   2.181   2.192   2.313   2.229   2.044   2.119   1.959   1.934   1.915   1.914   2.050   2.273   2.253   2.189   2.246   2.319   2.171   2.124   2.100   2.052   1.953   2.003   2.075   1.959   1.896   1.963   1.994   1.966   1.856   1.909   1.886   1.886   1.952
   111.00    2.001   1.924   1.957   2.008   2.100   2.162   2.135   2.206   2.369   2.476   2.320   2.365   2.266   2.060   2.017   1.987   2.141   2.066   2.005   2.067   1.989   1.953   2.002   2.062   2.000   1.803   1.849   1.762   1.693   1.823   1.686   1.633   1.897   2.111   2.039   2.156   2.170   2.145   2.128   2.324   2.282   2.195   2.296   2.229   2.218   2.023   1.924   2.084   1.910   2.013   1.973   2.143   2.054   2.133   2.226   2.195   2.140   2.170   2.261   2.089   1.977   1.801   1.997   1.912   1.891   1.991   1.902   1.961   1.872   1.726   1.914   1.952   2.123
   106.00    1.957   1.926   1.940   1.927   2.118   2.254   2.307   2.319   2.291   2.531   2.335   2.278   2.200   2.119   1.925   1.808   1.993   1.851   1.994   1.942   1.955   1.989   1.860   1.781   1.769   1.832   1.864   1.835   1.883   1.840   1.692   1.692   1.970   2.010   2.010   2.086   2.123   2.141   2.275   2.155   2.260   2.140   2.185   2.195   2.098   1.997   1.915   2.074   1.919   2.137   2.064   2.143   2.071   2.149   2.064   2.104   2.194   2.124   2.217   2.126   1.983   1.811   1.932   1.945   1.899   2.032   1.935   1.878   1.985   1.939   1.897   1.931   1.909
   101.00    2.000   1.961   2.086   2.007   2.332   2.450   2.345   2.350   2.439   2.543   2.406   2.141   2.223   1.939   1.765   1.771   1.845   1.859   1.833   1.878   1.892   1.926   1.840   1.905   1.771   1.920   1.946   1.862   1.940   1.987   1.896   1.800   1.958   1.974   1.885   1.978   2.153   2.131   2.160   2.162   2.114   2.029   1.995   1.910   2.068   2.068   1.991   2.115   2.135   2.116   2.128   2.045   2.079   2.036   2.006   2.020   1.904   1.913   2.028   2.039   2.025   1.908   1.905   2.101   2.107   2.019   1.895   1.791   1.876   1.857   1.808   1.913   1.866
    96.00    2.110   2.013   2.176   2.270   2.250   2.346   2.417   2.438   2.441   2.576   2.499   2.288   2.271   1.970   1.649   1.668   1.706   1.896   1.784   2.021   1.888   1.946   2.069   2.186   2.084   2.152   2.018   2.108   2.080   1.917   1.893   1.837   1.891   2.050   2.154   2.103   2.119   2.151   2.244   2.046   2.013   2.052   1.899   1.945   1.971   2.206   2.149   2.211   2.219   2.171   2.115   2.007   1.998   2.060   2.107   1.819   1.837   1.832   1.994   2.026   2.081   1.988   2.051   1.967   1.996   2.123   2.092   1.834   1.910   1.763   1.913   1.856   1.896
    91.00    2.224   2.201   2.285   2.245   2.228   2.279   2.504   2.413   2.475   2.375   2.324   2.303   2.213   1.903   1.763   1.760   1.889   1.836   2.041   2.124   2.175   2.035   2.136   2.155   2.060   2.100   2.099   2.240   2.169   2.041   1.905   1.994   2.031   2.004   2.243   2.121   2.224   2.143   2.110   2.127   2.170   2.163   2.119   2.268   2.144   2.215   2.181   2.187   2.285   2.183   2.193   1.992   1.948   2.016   2.051   1.896   1.832   1.971   2.088   2.293   2.279   2.096   2.027   2.005   1.849   1.970   2.113   2.119   1.904   1.852   1.880   2.001   1.925
    86.00    2.116   2.137   2.114   2.130   2.128   2.285   2.477   2.332   2.255   2.275   2.202   2.072   2.291   2.030   1.875   1.817   1.947   1.812   1.914   1.962   2.022   2.102   2.278   2.183   2.136   2.172   2.151   2.259   2.303   2.198   2.001   2.107   2.029   2.027   2.103   2.127   2.189   2.195   2.219   2.123   2.159   2.038   2.225   2.302   2.270   2.100   1.971   2.176   2.075   2.105   2.090   2.113   1.927   2.112   2.013   1.928   1.824   1.991   2.101   2.178   2.141   2.143   2.040   1.917   1.851   2.016   2.021   1.985   1.948   2.008   1.942   1.889   1.924
    81.00    2.137   2.068   2.078   2.102   2.108   2.212   2.327   2.302   2.229   2.089   2.118   2.142   2.237   2.154   1.954   1.943   1.846   1.913   1.872   1.893   2.066   2.044   2.152   2.337   2.114   2.029   2.112   2.170   2.270   2.203   2.088   2.148   2.057   2.072   2.106   2.165   2.285   2.222   2.287   2.023   2.103   2.132   2.248   2.125   2.170   2.068   2.023   2.001   2.132   2.153   2.128   2.207   2.081   2.094   1.982   1.863   1.844   1.931   2.085   2.058   2.067   2.167   2.089   1.922   1.928   2.095   2.055   1.971   1.973   1.986   1.852   1.985   1.796
    76.00    1.933   2.085   2.116   2.055   2.291   2.350   2.246   2.058   2.274   2.287   2.135   2.083   2.169   2.094   2.015   1.830   1.949   1.942   1.783   1.901   2.007   2.096   2.226   2.142   2.039   2.085   2.263   2.207   2.373   2.327   2.271   2.175   2.244   2.105   2.205   2.214   2.312   2.353   2.324   2.083   2.058   2.111   2.128   2.159   2.071   2.003   1.976   2.133   2.086   1.999   2.097   2.115   2.129   2.043   2.025   1.917   1.677   1.942   2.092   2.038   1.981   2.001   2.003   1.976   1.917   1.921   1.956   1.822   1.962   1.853   1.891   1.792   1.775
    71.00    2.024   1.860   1.901   2.125   2.242   2.293   2.366   2.134   2.215   2.218   2.075   2.118   1.936   1.980   1.998   1.948   1.940   1.849   2.018   1.896   2.025   2.205   2.195   2.183   2.133   2.155   2.267   2.275   2.318   2.396   2.226   2.194   2.147   2.167   2.263   2.299   2.332   2.420   2.232   2.148   2.199   2.281   2.113   1.923   1.968   1.948   2.007   2.053   1.921   1.935   1.987   2.044   2.008   1.889   1.976   1.873   1.759   1.815   1.980   1.987   2.045   1.956   1.857   1.815   1.976   1.840   1.845   1.858   1.858   1.893   1.857   1.836   1.807
    66.00    1.822   1.803   1.960   2.086   2.216   2.299   2.338   2.203   2.174   2.180   2.103   2.094   2.161   2.081   2.109   1.970   1.780   1.869   2.006   2.127   2.191   2.243   2.385   2.297   2.119   2.091   2.186   2.301   2.384   2.400   2.392   2.359   2.239   2.362   2.350   2.212   2.279   2.182   2.255   2.207   2.186   2.192   2.203   2.043   1.870   1.942   1.893   2.005   2.011   2.021   1.948   2.084   1.987   2.021   2.143   2.105   1.850   1.759   1.776   1.892   1.944   1.938   1.921   1.869   1.858   1.807   1.754   1.853   1.879   1.851   1.897   1.784   1.742
    61.00    2.030   1.916   1.954   1.988   1.971   2.123   2.120   2.299   2.169   2.102   2.066   2.095   2.376   2.263   2.172   2.018   2.039   2.254   2.197   2.132   2.231   2.287   2.297   2.179   2.019   2.200   2.230   2.184   2.414   2.602   2.474   2.352   2.425   2.284   2.220   2.222   2.253   2.228   2.252   2.201   2.270   2.201   2.193   2.079   1.978   1.984   2.143   2.042   2.007   2.063   2.260   2.073   1.988   2.021   2.133   2.114   1.949   1.911   1.933   1.859   1.841   1.808   1.902   2.018   1.844   1.693   1.842   1.835   1.717   1.889   1.984   1.858   1.934
    56.00    2.215   2.180   1.983   2.078   2.067   2.016   2.051   2.134   2.114   2.039   2.105   2.109   2.219   2.301   2.391   2.208   2.112   2.130   2.205   2.293   2.312   2.367   2.200   2.054   1.886   2.042   2.117   2.293   2.369   2.459   2.432   2.404   2.362   2.379   2.275   2.064   2.242   2.266   2.152   2.242   2.030   2.046   2.062   2.014   1.971   2.092   1.972   2.093   2.035   2.062   2.072   2.149   1.989   2.108   2.254   2.131   2.049   2.010   1.980   1.764   1.637   1.712   1.864   1.777   1.805   1.819   1.901   1.946   1.741   1.916   2.067   2.117   2.001
    51.00    2.143   2.088   2.064   2.081   1.929   1.979   1.900   2.023   2.012   1.985   2.097   2.220   2.294   2.244   2.320   2.211   2.262   2.243   2.286   2.225   2.248   2.303   2.158   2.171   1.939   1.947   1.947   2.021   2.219   2.189   2.234   2.274   2.236   2.233   2.239   2.220   2.226   2.152   2.156   2.253   2.187   2.188   2.086   2.100   2.147   1.934   2.038   1.967   1.923   1.940   2.105   2.073   2.135   2.187   2.240   2.105   2.051   2.108   1.926   1.735   1.685   1.817   1.795   1.752   1.758   1.818   1.965   1.835   1.875   1.887   1.934   2.083   2.019
    46.00    2.077   2.149   2.050   1.965   1.915   2.013   2.007   2.081   1.897   1.892   2.032   1.911   2.126   2.144   2.182   2.231   2.187   2.162   2.115   2.239   2.311   2.167   2.185   2.172   1.867   1.876   2.015   1.971   2.057   2.149   2.068   2.169   2.130   2.198   2.288   2.240   2.217   2.150   2.096   2.124   2.060   2.061   2.105   2.140   2.020   1.779   1.870   1.920   1.983   1.999   2.225   1.996   2.107   2.157   2.024   2.044   1.977   1.967   1.864   1.818   1.848   1.810   1.903   1.972   1.822   1.788   1.855   1.969   1.975   1.924   1.936   1.900   1.969
    41.00    2.142   2.186   2.159   1.974   1.826   1.918   2.009   2.092   2.070   1.861   1.856   2.050   2.208   2.083   2.227   2.052   2.105   2.015   2.077   2.242   2.348   2.239   2.207   2.230   2.135   1.894   2.001   1.986   1.940   2.109   1.980   2.126   1.966   2.063   2.153   2.137   2.082   1.898   2.024   2.061   1.964   1.967   2.095   2.161   2.216   1.917   1.938   1.832   1.947   1.985   2.067   1.974   1.913   1.991   1.877   1.911   2.027   2.022   1.865   1.928   1.940   2.006   2.013   1.848   1.864   1.723   1.912   1.927   1.960   2.018   1.941   1.912   1.906
    36.00    2.148   2.158   2.168   2.198   2.020   2.014   1.875   1.964   1.936   2.058   1.944   1.977   2.215   2.296   2.308   2.035   2.026   1.986   2.089   2.166   2.252   2.315   2.172   2.143   2.047   2.166   2.198   2.093   1.915   2.147   2.017   2.174   2.081   1.933   2.055   2.065   1.972   2.023   1.947   1.811   1.774   2.015   2.338   2.406   2.307   2.189   2.224   1.820   1.957   2.016   1.983   1.933   1.899   1.939   1.842   1.969   2.091   1.973   2.048   2.012   1.967   2.007   1.942   1.754   1.846   1.793   2.075   2.068   2.103   2.088   1.918   1.854   1.916
    31.00    2.238   2.305   2.222   2.260   2.339   2.208   2.116   2.045   2.111   2.037   2.062   1.949   2.083   2.223   2.167   2.123   2.024   1.956   2.131   2.229   2.362   2.268   2.193   2.204   2.190   2.146   2.138   2.129   2.185   2.205   2.013   2.028   1.996   1.957   2.078   2.188   2.151   2.217   1.953   1.869   2.025   2.171   2.261   2.357   2.343   2.297   2.041   1.963   2.021   1.967   1.972   2.009   1.988   1.934   1.972   1.837   2.008   1.941   1.930   1.896   2.024   2.002   2.052   1.979   1.952   1.829   1.904   2.030   2.057   2.098   1.938   1.818   1.859
    26.00    2.316   2.180   2.275   2.239   2.354   2.232   2.253   2.202   2.168   2.067   2.238   2.103   2.288   2.223   2.179   2.090   2.201   1.966   2.056   2.308   2.216   2.098   2.132   2.105   2.227   2.089   2.196   2.209   2.271   2.115   2.030   1.976   2.023   1.932   1.976   2.001   2.102   2.160   1.960   1.900   2.024   1.927   2.116   2.204   2.265   2.333   2.145   2.065   1.979   2.017   2.039   1.931   2.125   1.933   1.990   2.031   1.967   1.826   1.902   1.902   1.945   2.049   1.976   1.914   1.947   1.801   1.866   1.873   1.996   2.048   1.900   1.771   1.732
    21.00    2.267   2.329   2.251   2.230   2.336   2.509   2.359   2.320   2.186   2.153   2.138   2.196   2.223   2.337   2.299   2.235   2.082   2.095   2.275   2.333   2.351   2.350   2.264   2.291   2.133   2.138   2.244   2.152   2.091   2.073   2.044   1.985   2.092   2.019   2.072   1.916   2.089   2.111   2.000   2.006   2.018   2.065   2.129   2.213   2.230   2.278   2.085   2.046   2.027   2.001   2.117   2.078   2.072   1.855   1.867   1.862   1.916   1.857   1.861   1.855   1.939   1.917   2.086   1.955   1.837   1.869   1.780   1.866   1.931   2.011   2.004   1.847   1.915
    16.00    2.277   2.234   2.301   2.425   2.487   2.552   2.461   2.462   2.368   2.362   2.216   2.337   2.292   2.439   2.287   2.249   2.162   2.215   2.128   2.257   2.212   2.300   2.300   2.275   2.217   2.341   2.291   2.148   2.159   2.087   2.022   2.038   1.995   1.928   2.028   2.005   2.093   1.923   2.071   1.964   1.937   1.891   2.152   2.066   2.088   2.057   2.192   2.181   2.199   1.995   2.083   1.856   2.049   1.799   1.830   1.915   1.768   1.788   1.754   1.855   2.006   2.003   2.082   2.006   1.889   1.922   1.787   1.877   1.923   1.975   1.956   1.817   1.838
    11.00    2.309   2.286   2.336   2.492   2.566   2.561   2.330   2.486   2.467   2.234   2.303   2.452   2.491   2.455   2.356   2.225   2.245   2.256   2.199   2.155   2.253   2.282   2.339   2.337   2.337   2.388   2.392   2.343   2.345   2.133   2.067   1.874   2.023   1.944   1.986   1.934   2.053   1.800   1.966   2.056   1.957   1.811   2.006   2.148   2.089   2.063   1.976   2.097   2.028   1.832   2.004   2.029   2.106   2.007   1.901   1.866   1.633   1.674   1.757   1.823   1.921   1.982   2.057   2.033   2.001   1.925   1.915   1.881   2.044   2.128   1.970   1.831   1.877
     6.00    2.151   2.188   2.388   2.425   2.462   2.637   2.519   2.360   2.342   2.375   2.519   2.669   2.458   2.359   2.299   2.187   2.247   2.176   2.063   2.164   2.152   2.220   2.321   2.434   2.546   2.315   2.385   2.350   2.348   2.098   2.054   1.960   1.999   1.993   1.825   2.018   1.987   1.899   1.758   1.989   2.044   1.795   1.842   2.013   2.156   1.915   1.937   1.918   1.941   2.034   1.895   2.031   2.069   2.170   2.037   1.858   1.786   1.755   1.711   1.806   1.880   1.885   1.895   2.004   1.920   1.970   2.195   2.106   2.097   2.163   2.124   1.796   1.745
     1.00    2.086   2.289   2.300   2.361   2.427   2.462   2.541   2.500   2.322   2.296   2.273   2.406   2.266   2.299   2.289   2.224   2.155   2.051   2.120   2.066   2.106   2.280   2.191   2.406   2.512   2.300   2.196   2.315   2.222   2.313   2.311   2.095   2.014   1.937   1.950   1.962   2.064   2.124   1.958   1.923   1.989   1.753   1.789   1.860   2.104   2.025   2.063   2.051   1.873   2.040   1.845   1.961   2.039   2.018   1.960   1.782   1.738   1.848   1.874   1.916   1.959   1.856   1.801   1.760   1.985   2.091   2.148   2.117   2.195   2.065   2.073   2.114   1.910

   Height   Standard deviation at grid points for the v component:
   301.00    1.704   1.875   1.930   1.931   1.943   1.924   1.851   1.968   1.981   2.056   2.120   2.020   1.964   1.946   1.934   1.968   1.832   1.861   1.777   1.691   1.783   1.859   1.871   1.865   1.890   1.922   1.990   1.990   1.871   2.044   2.215   2.203   2.077   2.003   1.870   1.859   1.881   1.822   1.901   1.797   1.839   1.860   1.761   1.828   1.795   1.758   1.753   1.774   1.777   1.869   1.904   1.792   1.797   1.745   1.843   1.798   1.762   1.704   1.774   1.729   1.821   1.835   1.714   1.741   1.611   1.718   1.774   1.683   1.657   1.706   1.654   1.685   1.574
   296.00    1.696   1.785   1.754   1.791   1.829   1.767   1.783   1.872   2.057   2.095   2.041   2.015   1.875   1.849   1.896   1.908   1.934   1.849   1.740   1.783   1.757   1.757   1.797   1.893   1.936   1.958   1.968   1.901   1.891   2.021   2.127   2.149   2.035   1.911   1.929   1.808   1.823   1.862   1.879   1.818   1.836   1.849   1.832   1.731   1.778   1.717   1.738   1.740   1.815   1.832   1.840   1.902   1.874   1.764   1.906   1.893   1.878   1.816   1.754   1.730   1.758   1.757   1.601   1.570   1.640   1.695   1.775   1.664   1.666   1.680   1.655   1.641   1.557
   291.00    1.657   1.685   1.804   1.782   1.813   1.751   1.844   1.844   1.970   1.851   1.938   1.934   1.877   1.851   1.905   1.832   1.748   1.839   1.725   1.768   1.715   1.804   1.924   1.859   1.947   1.929   1.912   1.987   1.846   2.037   2.127   2.095   1.993   1.915   2.015   1.895   1.795   1.803   1.779   1.718   1.779   1.901   1.884   1.781   1.850   1.803   1.794   1.799   1.760   1.768   1.901   1.915   1.820   1.744   1.872   1.955   1.874   1.841   1.876   1.735   1.716   1.678   1.683   1.679   1.671   1.739   1.835   1.713   1.716   1.730   1.639   1.705   1.598
   286.00    1.762   1.688   1.709   1.764   1.852   1.845   1.902   1.900   1.776   1.926   1.859   1.875   1.820   1.773   1.717   1.728   1.825   1.728   1.725   1.748   1.800   1.895   1.862   1.865   1.937   1.935   2.001   1.945   1.974   1.917   2.101   2.082   1.997   1.947   1.907   1.881   1.868   1.793   1.846   1.664   1.772   1.860   1.995   1.885   1.868   1.784   1.763   1.755   1.703   1.783   1.835   1.831   1.788   1.726   1.738   1.937   1.866   1.896   1.914   1.819   1.744   1.699   1.801   1.851   1.885   1.850   1.821   1.800   1.773   1.769   1.696   1.833   1.767
   281.00    1.878   1.700   1.775   1.805   1.867   1.798   1.931   1.915   1.928   1.988   1.772   1.838   1.878   1.842   1.809   1.875   1.879   1.807   1.808   1.690   1.760   1.890   1.865   1.757   1.759   1.860   1.833   2.041   2.004   2.072   2.072   1.981   2.068   1.940   1.876   1.815   1.859   1.786   1.833   1.709   1.838   1.950   2.019   1.907   1.991   1.883   1.829   1.849   1.715   1.761   1.733   1.651   1.655   1.614   1.722   1.857   1.894   1.909   1.794   1.805   1.668   1.715   1.824   1.885   1.800   1.772   1.753   1.761   1.708   1.708   1.769   1.873   1.770
   276.00    1.989   1.847   1.848   1.870   1.897   1.947   1.973   1.933   1.860   1.761   1.784   1.862   1.961   1.806   1.960   1.904   1.792   1.825   1.729   1.692   1.757   1.838   1.713   1.765   1.781   1.881   1.916   1.990   1.998   2.005   1.983   1.947   1.909   1.918   1.826   1.882   1.754   1.787   1.848   1.806   1.835   1.899   1.934   1.830   1.908   1.875   1.888   1.804   1.666   1.697   1.625   1.554   1.625   1.696   1.806   1.878   1.875   1.808   1.784   1.891   1.787   1.768   1.862   1.862   1.700   1.789   1.844   1.766   1.708   1.723   1.729   1.830   1.804
   271.00    2.007   1.913   1.851   1.837   1.823   1.889   1.892   1.840   1.816   1.710   1.731   1.755   1.864   1.938   1.987   1.872   1.857   1.786   1.719   1.728   1.658   1.810   1.801   1.874   1.889   1.776   1.852   1.958   1.921   2.034   1.995   1.982   1.990   2.051   1.984   1.962   1.907   1.808   1.761   1.803   1.845   1.947   1.881   1.960   1.965   1.897   1.785   1.738   1.568   1.660   1.630   1.618   1.699   1.767   1.782   1.854   1.781   1.886   1.926   1.960   1.893   1.971   1.978   1.912   1.879   1.720   1.787   1.746   1.692   1.644   1.681   1.711   1.652
   266.00    1.983   1.901   1.804   1.783   1.846   1.814   1.784   1.782   1.826   1.741   1.768   1.671   1.802   1.922   1.853   1.874   1.882   1.766   1.752   1.774   1.689   1.739   1.798   1.876   1.840   1.778   1.792   1.892   1.949   2.021   2.043   1.927   1.922   2.024   2.058   1.924   1.857   1.814   1.835   1.835   1.773   1.766   1.788   1.806   1.774   1.837   1.808   1.634   1.704   1.699   1.646   1.689   1.771   1.761   1.748   1.746   1.787   1.823   1.808   1.944   2.022   1.996   1.958   2.007   1.954   1.837   1.840   1.840   1.864   1.709   1.615   1.716   1.828
   261.00    1.925   1.933   1.873   1.747   1.655   1.708   1.679   1.750   1.701   1.751   1.782   1.731   1.808   1.904   1.894   1.895   1.786   1.762   1.836   1.754   1.771   1.683   1.778   1.786   1.759   1.782   1.733   1.874   1.929   1.946   1.977   1.905   2.030   2.097   2.092   1.855   1.900   1.922   1.926   1.941   1.834   1.776   1.678   1.677   1.683   1.664   1.785   1.844   1.948   1.856   1.797   1.705   1.865   1.933   1.738   1.670   1.768   1.791   1.933   1.947   2.069   1.998   1.937   2.044   1.804   1.827   1.942   1.884   1.811   1.829   1.683   1.728   1.780
   256.00    1.876   1.855   1.818   1.713   1.711   1.660   1.656   1.703   1.655   1.688   1.800   1.890   1.771   1.839   1.841   1.831   1.790   1.789   1.818   1.804   1.676   1.736   1.751   1.708   1.756   1.735   1.697   1.759   1.807   1.939   2.004   1.960   1.994   1.915   1.988   1.947   1.824   1.931   1.949   1.889   1.842   1.742   1.640   1.605   1.572   1.743   1.634   1.844   1.919   1.850   1.804   1.784   1.800   1.918   1.814   1.858   1.784   1.800   1.894   2.118   1.989   1.982   1.963   1.999   1.889   1.893   1.856   1.843   1.956   1.868   1.842   1.736   1.721
   251.00    1.948   1.841   1.732   1.678   1.692   1.656   1.692   1.734   1.634   1.743   1.859   1.901   1.870   1.834   1.814   1.803   1.743   1.865   1.866   1.787   1.792   1.809   1.705   1.672   1.729   1.748   1.812   1.749   1.878   1.920   1.958   2.044   2.042   2.029   1.956   1.916   1.985   2.020   1.986   1.897   1.866   1.636   1.561   1.543   1.592   1.619   1.747   1.865   1.914   1.773   1.850   1.766   1.816   2.006   1.915   1.844   1.853   1.870   1.952   2.032   2.038   1.923   2.017   2.023   1.949   1.947   1.821   1.874   1.892   1.859   1.914   1.867   1.800
   246.00    1.871   1.799   1.785   1.739   1.727   1.733   1.674   1.740   1.651   1.658   1.805   1.811   1.743   1.731   1.721   1.815   1.714   1.883   1.906   1.803   1.800   1.780   1.730   1.727   1.672   1.718   1.723   1.715   1.837   1.908   1.987   1.923   1.879   1.923   1.860   1.881   1.933   2.046   1.934   1.843   1.857   1.763   1.717   1.576   1.602   1.633   1.691   1.722   1.669   1.709   1.759   1.792   1.991   2.022   1.993   1.941   1.846   1.877   1.857   1.927   1.978   1.832   1.811   1.829   1.941   1.922   1.757   1.918   1.936   1.902   1.959   1.904   1.790
   241.00    1.827   1.904   1.845   1.798   1.767   1.800   1.682   1.673   1.705   1.667   1.700   1.782   1.782   1.843   1.785   1.772   1.852   1.905   1.887   1.783   1.786   1.816   1.792   1.815   1.684   1.620   1.682   1.767   1.799   1.917   1.915   1.834   1.888   1.858   1.959   1.849   1.921   1.965   1.952   1.932   1.846   1.732   1.653   1.632   1.651   1.672   1.698   1.677   1.736   1.716   1.839   1.813   1.994   1.984   1.934   1.907   2.019   1.879   1.881   1.916   1.924   1.819   1.789   1.887   1.932   1.839   1.822   1.891   1.968   1.865   1.904   1.936   1.875
   236.00    1.845   1.852   1.744   1.800   1.803   1.812   1.751   1.662   1.713   1.758   1.641   1.684   1.703   1.777   1.718   1.767   1.803   1.858   1.783   1.815   1.815   1.755   1.688   1.698   1.684   1.690   1.830   1.725   1.829   1.889   1.893   1.727   1.770   1.830   1.735   1.843   1.879   1.873   1.839   1.837   1.851   1.699   1.681   1.790   1.755   1.707   1.805   1.773   1.780   1.717   1.776   1.781   1.945   1.902   1.766   1.791   1.930   2.007   1.923   1.953   1.815   1.744   1.810   1.768   1.805   1.789   1.746   1.848   1.842   1.907   1.810   1.941   1.981
   231.00    1.810   1.744   1.824   1.767   1.897   1.863   1.793   1.694   1.821   1.748   1.813   1.792   1.671   1.774   1.727   1.813   1.844   1.888   1.812   1.788   1.714   1.828   1.750   1.660   1.771   1.701   1.843   1.778   1.813   1.748   1.820   1.810   1.726   1.759   1.766   1.704   1.716   1.829   1.763   1.892   1.897   1.922   1.800   1.813   1.831   1.747   1.740   1.863   1.835   1.810   1.843   1.786   1.858   1.785   1.850   1.875   1.898   1.952   2.066   1.896   1.899   1.815   1.901   1.751   1.845   1.807   1.796   1.845   1.774   1.760   1.763   1.863   1.957
   226.00    1.650   1.693   1.809   1.860   1.872   1.920   1.935   1.904   1.872   1.868   1.886   1.789   1.788   1.729   1.691   1.786   1.904   1.804   1.828   1.753   1.774   1.824   1.782   1.714   1.786   1.821   1.789   1.750   1.922   1.898   1.858   1.830   1.865   1.814   1.827   1.703   1.769   1.766   1.783   1.888   1.935   1.894   1.911   1.850   1.817   1.763   1.831   1.792   1.859   1.802   1.777   1.852   1.867   1.743   1.836   1.812   1.955   2.102   2.009   1.899   1.841   2.078   2.062   1.931   1.941   1.872   1.788   1.765   1.739   1.722   1.741   1.838   1.816
   221.00    1.744   1.754   1.756   1.878   1.868   1.934   1.884   1.896   1.862   1.872   1.886   1.903   1.768   1.758   1.868   1.844   1.853   1.789   1.830   1.652   1.658   1.703   1.769   1.779   1.719   1.656   1.790   1.798   1.954   1.805   1.786   1.827   1.934   1.775   1.743   1.641   1.811   1.853   1.815   1.865   1.823   1.757   1.772   1.794   1.769   1.768   1.680   1.718   1.767   1.793   1.793   1.882   1.921   1.812   1.696   1.874   2.050   2.086   1.952   1.852   1.988   2.000   2.015   1.975   1.921   1.971   1.748   1.763   1.748   1.704   1.709   1.722   1.786
   216.00    1.682   1.863   1.896   1.885   1.872   1.778   1.851   1.868   1.872   1.861   1.881   1.918   1.885   1.868   1.914   1.881   1.889   1.784   1.719   1.646   1.596   1.613   1.758   1.733   1.700   1.787   1.855   1.809   1.903   1.835   1.762   1.857   1.831   1.885   1.789   1.782   1.816   1.860   1.796   1.827   1.711   1.731   1.780   1.698   1.735   1.746   1.663   1.798   1.798   1.750   1.782   1.824   1.713   1.775   1.841   1.810   1.975   2.048   1.973   1.944   1.866   1.935   1.956   1.940   1.894   1.813   1.788   1.763   1.817   1.827   1.854   1.789   1.845
   211.00    1.842   1.921   1.950   1.910   1.780   1.774   1.811   1.768   1.885   1.995   1.981   2.046   1.990   1.907   1.887   1.824   1.707   1.672   1.598   1.570   1.478   1.562   1.634   1.681   1.749   1.790   1.845   1.801   1.832   1.767   1.793   1.854   1.908   1.824   1.720   1.845   1.872   1.898   1.840   1.884   1.790   1.689   1.635   1.560   1.620   1.643   1.665   1.700   1.809   1.860   1.682   1.693   1.728   1.739   1.773   1.930   1.908   1.937   1.823   1.897   1.969   1.971   1.858   1.891   1.901   1.771   1.772   1.762   1.841   2.003   1.974   1.946   1.989
   206.00    1.933   1.922   1.899   1.949   1.865   1.796   1.787   1.817   1.894   2.008   1.995   1.976   2.022   1.893   1.877   1.770   1.749   1.702   1.706   1.539   1.546   1.553   1.731   1.752   1.774   1.730   1.755   1.809   1.869   1.843   1.896   1.795   1.920   1.988   1.939   1.926   1.954   1.910   1.819   1.827   1.677   1.703   1.764   1.692   1.677   1.722   1.748   1.767   1.809   1.797   1.662   1.689   1.717   1.798   1.842   1.865   1.950   1.940   1.926   1.956   1.994   2.045   2.003   2.029   2.016   1.881   1.905   1.900   1.862   2.083   2.138   2.048   2.075
   201.00    1.967   2.045   2.019   2.005   1.900   1.916   1.956   1.853   1.922   1.935   1.900   1.873   1.984   1.859   1.824   1.712   1.812   1.712   1.704   1.626   1.589   1.718   1.689   1.801   1.898   1.780   1.768   1.781   1.815   1.841   1.884   1.893   1.908   2.080   2.096   2.034   1.982   1.889   1.754   1.684   1.734   1.846   1.792   1.709   1.723   1.834   1.896   1.773   1.718   1.609   1.704   1.668   1.777   1.730   1.733   1.885   1.859   1.972   2.029   2.002   2.053   1.974   2.097   2.060   2.078   2.020   1.966   1.966   1.938   2.025   2.127   2.162   2.107
   196.00    1.995   2.024   2.090   1.953   1.927   1.952   1.933   1.939   1.886   1.962   1.858   1.824   1.917   1.915   1.792   1.746   1.808   1.792   1.721   1.609   1.624   1.714   1.838   1.972   1.805   1.746   1.820   1.789   1.831   1.950   1.787   1.834   2.006   2.043   2.015   2.035   2.087   2.088   1.809   1.818   1.781   1.743   1.792   1.768   1.889   1.950   1.959   1.856   1.793   1.867   1.693   1.780   1.813   1.726   1.674   1.781   1.868   1.891   2.027   2.080   2.083   2.091   2.181   2.209   2.185   2.044   2.061   2.045   2.045   2.111   2.103   2.118   2.155
   191.00    1.935   2.004   2.026   1.995   1.975   1.881   1.897   1.843   1.830   1.853   1.851   1.825   1.869   1.890   1.776   1.763   1.770   1.803   1.696   1.779   1.626   1.614   1.696   1.758   1.855   1.845   1.803   1.755   1.843   1.889   1.756   1.741   1.901   2.023   2.128   2.092   2.159   2.062   1.823   1.784   1.748   1.800   1.787   1.778   1.808   1.919   1.943   1.984   2.049   1.954   1.813   1.814   1.940   1.783   1.812   1.789   1.965   1.950   1.947   2.084   2.100   2.213   2.262   2.180   2.065   2.032   1.967   2.031   2.104   2.104   2.161   2.100   2.066
   186.00    1.892   1.953   1.944   2.031   2.008   1.960   1.844   1.772   1.813   1.893   1.861   1.850   1.852   1.797   1.794   1.747   1.678   1.708   1.860   1.742   1.693   1.771   1.712   1.755   1.824   1.888   1.777   1.816   1.782   1.805   1.685   1.834   1.838   2.010   2.086   2.005   2.032   1.975   1.682   1.663   1.680   1.788   1.805   1.780   1.818   1.888   1.946   1.994   1.920   1.978   1.943   1.807   1.934   1.865   1.808   1.822   2.042   2.052   2.005   2.132   2.254   2.200   2.051   2.116   2.021   2.028   1.875   1.941   2.096   2.182   2.262   2.049   2.115
   181.00    1.903   1.831   1.810   1.818   1.896   1.883   1.859   1.836   1.955   1.936   1.986   2.006   1.935   1.840   1.823   1.674   1.599   1.679   1.730   1.792   1.713   1.764   1.740   1.814   1.780   1.836   1.815   1.850   1.865   1.817   1.805   1.830   1.891   1.884   1.934   1.901   1.835   1.915   1.760   1.716   1.797   1.905   1.855   1.750   1.812   1.897   1.799   1.920   1.952   1.933   1.875   1.873   1.874   1.806   1.790   1.893   2.047   2.129   2.029   2.111   2.192   2.256   2.073   2.159   2.015   2.012   1.867   1.956   2.058   2.072   2.138   2.201   2.192
   176.00    1.844   1.895   1.800   1.874   1.917   1.899   1.806   1.889   1.934   2.022   2.077   1.992   1.922   1.854   1.783   1.681   1.751   1.762   1.691   1.744   1.778   1.806   1.724   1.795   1.868   1.819   1.863   1.840   1.762   1.911   1.801   1.764   1.814   1.809   1.804   1.819   1.859   1.823   1.834   1.903   1.880   1.928   1.818   1.827   1.979   2.008   1.874   1.985   1.982   1.992   1.856   1.839   1.836   1.830   1.832   1.933   2.158   2.228   2.071   2.133   2.141   2.136   2.060   2.161   2.100   1.974   2.067   1.962   2.021   2.099   2.110   2.173   2.135
   171.00    1.757   1.830   1.804   1.914   1.990   1.890   1.880   1.912   2.002   2.071   2.079   1.976   2.010   1.897   1.820   1.737   1.850   1.832   1.830   1.926   1.963   1.861   1.867   1.940   1.846   1.905   1.883   1.878   1.881   1.833   1.823   1.852   1.759   1.761   1.712   1.662   1.788   1.906   1.975   1.978   1.984   2.113   2.027   1.932   1.866   1.895   1.998   1.956   1.943   1.944   1.796   1.725   1.734   1.804   1.834   1.944   2.058   2.022   1.967   2.011   2.180   2.244   2.284   2.102   1.995   1.976   2.039   2.071   2.100   2.044   2.152   2.099   2.142
   166.00    1.828   1.785   1.828   1.819   1.867   1.906   1.866   1.797   1.953   1.929   1.919   1.971   1.842   1.877   1.753   1.755   1.843   1.816   1.954   2.019   1.852   1.900   1.867   1.927   1.948   1.939   1.875   1.810   1.809   1.713   1.674   1.705   1.749   1.718   1.718   1.787   1.763   1.885   1.896   1.954   2.039   2.174   2.129   1.979   1.958   1.854   1.863   1.939   2.000   1.927   1.847   1.907   1.908   1.816   1.910   1.931   1.967   2.003   2.011   2.065   2.210   2.221   2.251   2.085   2.086   1.961   1.958   2.007   1.987   2.094   2.036   2.132   2.156
   161.00    1.757   1.879   1.796   1.787   1.880   1.769   1.879   1.845   1.888   1.942   1.866   1.830   1.800   1.711   1.849   1.747   1.840   1.760   1.917   2.013   1.982   1.850   1.927   1.894   1.846   1.921   1.898   1.850   1.772   1.831   1.734   1.669   1.689   1.766   1.774   1.884   1.871   1.986   1.974   1.875   1.914   2.034   2.122   2.007   1.914   1.868   1.935   1.911   1.963   1.798   1.722   1.881   1.971   1.867   2.054   1.919   1.954   1.959   2.014   1.975   2.096   2.194   2.189   2.137   2.103   1.986   1.964   1.948   1.880   2.016   2.043   2.172   2.200
   156.00    1.741   1.833   1.757   1.790   1.796   1.820   1.805   1.858   1.851   1.927   1.878   1.776   1.747   1.709   1.780   1.886   1.846   1.801   1.964   1.922   2.008   1.987   1.897   1.900   1.861   1.829   1.833   1.777   1.840   1.815   1.784   1.810   1.744   1.795   1.781   1.873   1.898   1.937   1.948   2.033   1.948   2.040   2.040   2.057   1.922   1.930   1.956   1.836   1.825   1.771   1.735   1.744   1.823   1.905   1.950   2.035   2.022   2.035   2.190   2.121   2.051   2.226   2.200   2.233   2.126   1.965   1.895   1.864   1.953   1.995   2.142   2.102   2.098
   151.00    1.671   1.792   1.782   1.739   1.788   1.894   1.857   1.940   1.948   1.909   1.842   1.799   1.869   1.754   1.737   1.871   1.923   2.019   1.958   1.913   1.892   1.850   1.971   1.956   1.968   1.982   1.848   1.882   1.908   1.751   1.731   1.881   1.789   1.904   1.911   1.925   1.973   2.032   2.086   2.000   1.921   2.007   2.002   1.962   1.806   1.765   1.831   1.888   1.765   1.771   1.749   1.716   1.788   1.955   1.949   1.996   1.985   1.962   2.048   2.008   2.101   2.024   2.119   2.081   1.975   1.943   1.953   1.931   1.917   1.979   2.069   2.136   2.083
   146.00    1.659   1.700   1.873   1.780   1.774   1.724   1.789   1.900   1.960   1.850   1.809   1.834   1.745   1.620   1.829   1.799   1.886   1.928   1.996   1.887   1.833   1.794   1.981   1.920   1.910   2.000   1.820   1.788   1.883   1.812   1.780   1.830   1.732   1.736   1.845   1.892   1.992   1.993   2.032   1.991   1.855   1.963   1.809   1.875   1.922   1.891   1.755   1.810   1.806   1.794   1.801   1.851   1.900   1.921   1.969   1.903   1.903   1.821   1.937   1.954   1.994   2.042   2.022   1.982   2.015   1.937   2.014   1.988   1.913   2.052   2.018   2.023   2.057
   141.00    1.672   1.661   1.785   1.847   1.653   1.738   1.789   1.807   1.938   1.899   1.803   1.727   1.703   1.705   1.789   1.894   1.853   1.921   1.927   1.855   1.970   1.943   1.988   1.931   1.971   2.064   1.793   1.742   1.786   1.801   1.829   1.805   1.720   1.790   1.850   1.937   1.968   1.958   1.927   2.000   1.975   1.980   1.839   1.813   1.829   1.794   1.811   1.772   1.712   1.797   1.777   1.849   1.817   1.898   1.993   1.898   1.871   1.961   1.909   1.930   2.054   2.059   2.052   2.090   1.994   2.007   1.949   2.049   1.993   1.963   1.885   1.985   1.910
   136.00    1.690   1.695   1.764   1.800   1.709   1.720   1.815   1.864   1.769   1.840   1.875   1.840   1.807   1.720   1.810   2.006   2.092   1.991   1.922   1.886   1.974   1.978   1.898   1.926   2.032   2.080   1.867   1.823   1.684   1.884   1.860   1.713   1.719   1.782   1.773   1.936   1.952   1.920   1.859   2.008   1.981   1.996   1.827   1.838   1.826   1.887   1.862   1.710   1.645   1.760   1.823   1.813   1.781   1.783   1.888   1.688   1.766   1.998   1.932   1.872   1.961   1.961   2.091   2.072   2.044   1.909   1.907   2.060   2.033   1.956   1.943   2.005   1.952
   131.00    1.708   1.728   1.809   1.763   1.731   1.785   1.796   1.826   1.844   1.779   1.806   1.735   1.829   1.822   1.778   1.845   1.887   1.961   1.959   1.830   1.896   1.866   1.866   1.928   1.937   1.913   1.833   1.626   1.813   1.766   1.740   1.765   1.761   1.724   1.791   1.906   1.886   1.991   1.993   1.976   1.914   1.810   1.710   1.760   1.725   1.754   1.856   1.656   1.588   1.719   1.748   1.788   1.730   1.686   1.758   1.815   1.912   1.965   1.935   1.934   1.972   1.961   1.987   1.863   1.875   1.977   1.916   2.025   2.013   1.910   1.947   1.960   2.072
   126.00    1.809   1.886   1.834   1.842   1.738   1.793   1.904   1.881   1.807   1.764   1.826   1.715   1.831   1.661   1.830   1.845   1.757   1.698   1.794   1.733   1.838   1.853   1.890   1.870   1.805   1.800   1.712   1.778   1.675   1.746   1.706   1.652   1.703   1.786   1.792   1.833   1.800   1.945   1.902   1.844   1.789   1.799   1.704   1.709   1.854   1.749   1.753   1.726   1.781   1.796   1.763   1.681   1.711   1.740   1.713   1.753   1.868   2.026   2.067   1.998   1.944   1.935   2.045   1.866   1.904   1.961   2.027   2.008   2.066   2.031   2.064   1.938   2.063
   121.00    1.790   1.795   1.796   1.812   1.785   1.730   1.746   1.769   1.789   1.774   1.815   1.787   1.809   1.803   1.794   1.801   1.696   1.616   1.721   1.732   1.720   1.803   1.845   1.757   1.793   1.710   1.761   1.721   1.654   1.714   1.656   1.680   1.822   1.860   1.783   1.787   1.861   1.911   1.949   1.925   1.839   1.867   1.795   1.775   1.787   1.703   1.774   1.674   1.819   1.783   1.604   1.590   1.620   1.674   1.744   1.796   1.956   1.883   1.931   2.029   1.928   1.914   1.965   1.840   1.792   1.991   1.997   2.083   2.066   2.037   1.972   2.029   1.932
   116.00    1.721   1.770   1.796   1.758   1.607   1.722   1.645   1.643   1.672   1.696   1.792   1.783   1.881   1.879   1.828   1.775   1.644   1.668   1.721   1.719   1.732   1.745   1.761   1.819   1.812   1.803   1.703   1.731   1.704   1.745   1.789   1.718   1.885   1.865   1.847   1.828   1.833   1.857   1.845   1.895   1.770   1.895   1.852   1.773   1.736   1.690   1.733   1.747   1.769   1.732   1.745   1.729   1.606   1.687   1.666   1.738   1.871   1.859   1.929   1.993   1.971   1.872   1.835   1.951   1.883   1.894   2.057   2.086   2.114   2.135   2.025   1.898   2.004
   111.00    1.660   1.613   1.648   1.663   1.630   1.594   1.581   1.587   1.676   1.793   1.791   1.902   1.812   1.780   1.813   1.732   1.708   1.725   1.721   1.717   1.589   1.651   1.661   1.668   1.750   1.751   1.703   1.780   1.713   1.865   1.891   1.880   1.854   1.825   1.910   1.809   1.924   1.958   1.885   1.815   1.776   1.829   1.827   1.833   1.685   1.762   1.764   1.792   1.732   1.713   1.743   1.684   1.641   1.699   1.740   1.688   1.704   1.838   1.815   1.922   2.022   1.881   1.980   1.970   1.933   1.896   2.164   2.043   2.106   2.105   1.954   1.957   2.096
   106.00    1.673   1.762   1.800   1.624   1.591   1.586   1.551   1.471   1.583   1.622   1.750   1.705   1.737   1.595   1.723   1.687   1.781   1.755   1.770   1.657   1.556   1.604   1.618   1.660   1.708   1.702   1.641   1.682   1.739   1.746   1.834   1.761   1.916   1.848   1.883   1.930   1.937   1.896   1.698   1.708   1.721   1.723   1.806   1.890   1.839   1.883   1.820   1.781   1.766   1.833   1.908   1.840   1.753   1.737   1.783   1.616   1.635   1.716   1.894   2.010   2.033   2.045   1.978   1.941   1.902   1.940   2.093   2.074   2.017   2.129   2.030   2.082   2.060
   101.00    1.717   1.773   1.799   1.637   1.618   1.566   1.512   1.540   1.551   1.666   1.639   1.717   1.637   1.695   1.698   1.740   1.752   1.748   1.802   1.707   1.611   1.668   1.761   1.815   1.787   1.673   1.597   1.647   1.714   1.860   1.859   1.948   1.871   1.937   1.894   1.867   1.993   1.836   1.747   1.855   1.684   1.754   1.741   1.749   1.894   1.843   1.804   1.795   1.712   1.805   1.912   1.770   1.856   1.786   1.661   1.710   1.758   1.770   1.885   2.093   1.966   1.978   1.949   1.927   1.978   1.981   2.068   2.089   2.146   2.169   2.166   2.143   2.087
    96.00    1.708   1.764   1.760   1.687   1.641   1.590   1.528   1.548   1.539   1.605   1.703   1.702   1.656   1.650   1.580   1.618   1.550   1.723   1.669   1.683   1.664   1.751   1.859   1.917   1.957   1.827   1.724   1.744   1.784   1.828   1.885   1.870   1.890   1.815   1.923   1.946   1.984   2.032   1.914   1.819   1.687   1.707   1.760   1.683   1.784   1.783   1.792   1.769   1.777   1.775   1.905   1.994   1.903   1.780   1.700   1.689   1.859   1.911   1.992   1.993   2.017   2.036   2.013   2.041   2.110   2.012   2.131   2.211   2.142   2.211   2.171   2.143   2.060
    91.00    1.713   1.690   1.707   1.567   1.654   1.568   1.519   1.557   1.558   1.623   1.682   1.670   1.569   1.626   1.617   1.623   1.605   1.691   1.717   1.799   1.745   1.776   1.867   1.939   1.934   1.866   1.801   1.734   1.784   1.821   1.845   1.861   1.773   1.801   1.798   1.879   1.944   1.855   1.839   1.746   1.714   1.688   1.751   1.768   1.841   1.846   1.841   1.825   1.773   1.832   1.936   1.922   1.867   1.802   1.690   1.615   1.765   1.837   1.871   1.989   2.041   2.107   2.006   2.030   2.094   2.073   2.143   2.214   2.182   2.157   2.152   2.129   2.092
    86.00    1.690   1.657   1.641   1.718   1.643   1.506   1.531   1.653   1.692   1.759   1.779   1.680   1.624   1.640   1.699   1.644   1.750   1.698   1.698   1.793   1.816   1.905   1.970   2.013   1.940   1.971   1.917   1.906   1.731   1.688   1.747   1.797   1.698   1.836   1.803   1.799   1.898   1.783   1.898   1.809   1.782   1.727   1.761   1.837   1.842   1.953   1.829   1.824   1.884   1.890   1.963   2.034   1.930   1.789   1.762   1.631   1.707   1.787   1.786   1.945   1.898   1.894   1.939   1.990   2.013   2.100   2.147   2.214   2.134   2.019   2.033   2.112   2.098
    81.00    1.530   1.673   1.725   1.773   1.632   1.596   1.621   1.584   1.732   1.755   1.723   1.693   1.631   1.759   1.744   1.700   1.699   1.821   1.841   1.850   1.881   1.867   2.003   1.996   1.981   1.936   1.901   1.877   1.896   1.847   1.872   1.944   1.831   1.843   1.793   1.884   1.878   1.876   1.843   1.775   1.770   1.689   1.644   1.703   1.820   1.823   1.861   1.864   1.794   1.922   1.892   1.876   1.837   1.772   1.755   1.603   1.693   1.667   1.880   2.011   1.928   1.863   1.872   1.961   1.915   1.944   2.104   2.135   2.089   2.007   2.002   2.015   2.099
    76.00    1.565   1.663   1.679   1.727   1.711   1.586   1.607   1.677   1.683   1.728   1.677   1.731   1.719   1.654   1.682   1.678   1.762   1.778   1.822   1.834   1.933   1.937   1.903   1.990   2.031   1.946   2.041   1.892   1.844   2.016   2.014   1.992   1.861   1.779   1.824   1.820   1.855   1.811   1.751   1.798   1.710   1.740   1.709   1.742   1.756   1.664   1.799   1.802   1.823   1.875   1.796   1.830   1.825   1.800   1.760   1.797   1.771   1.871   1.765   1.864   1.833   1.827   1.811   1.830   1.889   1.882   1.976   1.998   1.943   1.955   2.014   2.096   2.114
    71.00    1.575   1.633   1.653   1.738   1.712   1.612   1.684   1.732   1.697   1.713   1.697   1.751   1.779   1.698   1.717   1.805   1.894   1.836   1.902   1.896   1.824   1.933   1.916   1.992   2.081   2.000   1.838   2.019   1.896   1.933   2.114   2.090   1.929   1.874   1.763   1.803   1.803   1.766   1.775   1.701   1.666   1.652   1.769   1.722   1.658   1.736   1.777   1.798   1.789   1.738   1.776   1.764   1.734   1.703   1.684   1.738   1.744   1.758   1.737   1.796   1.788   1.791   1.829   1.927   1.964   1.951   2.056   2.026   1.989   2.118   2.061   2.079   2.134
    66.00    1.604   1.581   1.592   1.596   1.671   1.708   1.694   1.666   1.739   1.696   1.687   1.735   1.742   1.602   1.730   1.799   1.795   1.899   1.909   1.967   1.886   1.840   1.855   1.865   2.018   2.042   1.953   2.079   1.982   2.019   2.092   2.128   1.934   1.894   1.870   1.797   1.714   1.637   1.720   1.635   1.633   1.718   1.783   1.707   1.666   1.771   1.743   1.773   1.752   1.701   1.629   1.758   1.662   1.629   1.679   1.654   1.745   1.757   1.707   1.716   1.776   1.743   1.799   1.953   1.885   1.953   2.106   2.018   2.014   2.166   2.091   1.957   2.000
    61.00    1.605   1.590   1.572   1.519   1.692   1.756   1.671   1.668   1.709   1.637   1.565   1.631   1.676   1.617   1.725   1.625   1.797   1.763   1.827   1.881   1.961   1.783   1.784   1.813   1.953   1.950   1.973   1.970   2.031   1.951   2.071   2.057   1.947   1.855   1.860   1.735   1.729   1.724   1.743   1.714   1.745   1.618   1.721   1.697   1.718   1.665   1.626   1.728   1.767   1.780   1.637   1.672   1.746   1.698   1.728   1.640   1.689   1.796   1.792   1.710   1.705   1.705   1.797   1.948   1.910   1.880   1.997   1.954   2.023   2.016   2.018   1.918   1.951
    56.00    1.665   1.589   1.636   1.643   1.622   1.805   1.761   1.742   1.718   1.624   1.666   1.693   1.659   1.621   1.554   1.686   1.760   1.715   1.733   1.740   1.735   1.633   1.616   1.698   1.752   1.773   1.924   1.769   1.945   2.020   1.986   1.911   1.832   1.728   1.739   1.840   1.742   1.622   1.635   1.625   1.676   1.633   1.672   1.641   1.739   1.661   1.728   1.752   1.643   1.646   1.616   1.771   1.763   1.815   1.800   1.663   1.658   1.683   1.754   1.757   1.744   1.765   1.756   1.869   1.880   1.944   1.916   1.830   1.894   1.998   2.001   1.934   1.910
    51.00    1.703   1.650   1.603   1.639   1.681   1.816   1.883   1.895   1.724   1.744   1.776   1.762   1.665   1.590   1.663   1.682   1.698   1.702   1.617   1.570   1.586   1.584   1.678   1.667   1.740   1.806   1.750   1.862   1.907   1.842   1.857   1.786   1.696   1.673   1.828   1.856   1.716   1.697   1.580   1.583   1.775   1.713   1.637   1.646   1.712   1.629   1.655   1.704   1.723   1.577   1.610   1.698   1.745   1.784   1.814   1.684   1.690   1.703   1.760   1.792   1.837   1.864   1.855   1.796   1.790   1.726   1.951   1.901   1.840   1.961   1.947   1.920   1.928
[...]
   161.00    1.139   1.109   1.080   1.085   1.077   1.113   1.103   1.150   1.089   1.045   1.131   1.116   1.191   1.207   1.197   1.155   1.174   1.139   1.182   1.210   1.214   1.237   1.274   1.179   1.233   1.268   1.266   1.299   1.257   1.270   1.269   1.257   1.249   1.214   1.229   1.186   1.166   1.167   1.184   1.186   1.189   1.174   1.134   1.145   1.171   1.089   1.116   1.098   1.101   1.116   1.150   1.160   1.201   1.230   1.186   1.156   1.208   1.144   1.175   1.110   1.095   1.131   1.163   1.160   1.160   1.142   1.089   1.066   1.064   1.052   1.047   1.068   1.077
   156.00    1.081   1.053   1.077   1.047   1.050   1.065   1.075   1.110   1.128   1.092   1.095   1.144   1.157   1.200   1.183   1.195   1.148   1.175   1.204   1.237   1.264   1.214   1.215   1.207   1.209   1.285   1.287   1.319   1.221   1.241   1.321   1.188   1.186   1.216   1.205   1.209   1.154   1.196   1.198   1.233   1.178   1.186   1.161   1.150   1.180   1.076   1.076   1.121   1.068   1.096   1.130   1.160   1.170   1.211   1.212   1.209   1.170   1.116   1.106   1.120   1.114   1.121   1.175   1.207   1.146   1.136   1.106   1.131   1.096   1.082   1.085   1.056   1.077
   151.00    1.089   1.051   1.074   1.096   1.094   1.126   1.092   1.068   1.091   1.082   1.110   1.120   1.120   1.151   1.185   1.198   1.218   1.184   1.185   1.187   1.233   1.214   1.231   1.211   1.226   1.236   1.197   1.234   1.259   1.232   1.294   1.196   1.187   1.171   1.158   1.181   1.198   1.215   1.224   1.193   1.188   1.174   1.201   1.151   1.153   1.087   1.098   1.096   1.110   1.100   1.191   1.180   1.161   1.180   1.213   1.189   1.171   1.123   1.078   1.104   1.152   1.132   1.176   1.202   1.175   1.161   1.201   1.165   1.144   1.095   1.066   1.082   1.066
   146.00    1.081   1.099   1.103   1.083   1.085   1.080   1.082   1.111   1.106   1.126   1.143   1.142   1.149   1.161   1.218   1.213   1.254   1.227   1.264   1.243   1.247   1.250   1.256   1.276   1.191   1.176   1.244   1.199   1.268   1.253   1.266   1.198   1.249   1.252   1.232   1.203   1.253   1.207   1.167   1.212   1.193   1.178   1.150   1.092   1.133   1.130   1.108   1.138   1.143   1.112   1.143   1.185   1.200   1.151   1.185   1.212   1.216   1.180   1.139   1.172   1.138   1.137   1.178   1.170   1.204   1.231   1.227   1.179   1.110   1.100   1.097   1.109   1.123
   141.00    1.113   1.103   1.113   1.116   1.082   1.078   1.063   1.081   1.132   1.130   1.154   1.150   1.134   1.148   1.239   1.229   1.212   1.212   1.193   1.224   1.282   1.292   1.282   1.246   1.229   1.209   1.236   1.255   1.204   1.235   1.174   1.196   1.233   1.235   1.208   1.167   1.205   1.179   1.173   1.164   1.164   1.171   1.089   1.059   1.107   1.111   1.118   1.136   1.110   1.133   1.149   1.136   1.127   1.159   1.169   1.173   1.167   1.194   1.203   1.166   1.098   1.103   1.145   1.168   1.215   1.267   1.222   1.215   1.207   1.225   1.192   1.142   1.143
   136.00    1.144   1.099   1.127   1.143   1.129   1.104   1.089   1.060   1.124   1.166   1.160   1.156   1.120   1.141   1.206   1.231   1.180   1.204   1.180   1.200   1.204   1.277   1.223   1.280   1.210   1.218   1.190   1.181   1.199   1.220   1.213   1.256   1.193   1.229   1.183   1.227   1.212   1.201   1.148   1.152   1.146   1.146   1.104   1.070   1.084   1.106   1.139   1.139   1.125   1.116   1.095   1.151   1.114   1.099   1.146   1.158   1.151   1.199   1.175   1.160   1.124   1.139   1.174   1.182   1.244   1.237   1.239   1.251   1.184   1.231   1.206   1.176   1.191
   131.00    1.115   1.097   1.109   1.132   1.157   1.168   1.094   1.066   1.164   1.143   1.193   1.163   1.138   1.141   1.136   1.129   1.186   1.222   1.238   1.239   1.244   1.307   1.251   1.264   1.245   1.207   1.154   1.134   1.138   1.160   1.137   1.204   1.205   1.193   1.166   1.214   1.161   1.201   1.163   1.184   1.189   1.133   1.066   1.048   1.062   1.110   1.140   1.129   1.111   1.119   1.097   1.121   1.097   1.098   1.135   1.132   1.183   1.220   1.259   1.150   1.112   1.138   1.177   1.180   1.183   1.252   1.228   1.187   1.202   1.201   1.221   1.211   1.235
   126.00    1.112   1.098   1.103   1.098   1.151   1.130   1.086   1.148   1.157   1.183   1.191   1.128   1.121   1.107   1.116   1.107   1.158   1.191   1.221   1.228   1.230   1.216   1.253   1.235   1.169   1.133   1.175   1.159   1.193   1.167   1.184   1.223   1.164   1.208   1.220   1.215   1.190   1.160   1.176   1.181   1.176   1.133   1.094   1.080   1.071   1.115   1.157   1.105   1.114   1.124   1.104   1.072   1.048   1.116   1.106   1.115   1.167   1.190   1.190   1.191   1.135   1.108   1.122   1.109   1.197   1.222   1.245   1.203   1.193   1.193   1.194   1.190   1.214
   121.00    1.119   1.048   1.091   1.062   1.113   1.146   1.139   1.116   1.149   1.180   1.104   1.134   1.115   1.160   1.145   1.106   1.152   1.118   1.142   1.171   1.239   1.184   1.150   1.254   1.167   1.141   1.129   1.187   1.197   1.203   1.214   1.152   1.163   1.179   1.186   1.159   1.168   1.172   1.145   1.162   1.162   1.127   1.096   1.082   1.090   1.067   1.127   1.127   1.134   1.086   1.116   1.084   1.109   1.134   1.089   1.072   1.120   1.154   1.134   1.131   1.110   1.111   1.139   1.102   1.159   1.190   1.193   1.176   1.185   1.173   1.163   1.155   1.179
   116.00    1.179   1.144   1.116   1.150   1.123   1.128   1.137   1.103   1.122   1.170   1.127   1.160   1.134   1.114   1.137   1.175   1.157   1.164   1.185   1.173   1.216   1.184   1.178   1.215   1.222   1.149   1.211   1.212   1.188   1.172   1.181   1.142   1.159   1.190   1.157   1.168   1.122   1.114   1.110   1.079   1.149   1.117   1.131   1.045   1.052   1.062   1.107   1.127   1.132   1.105   1.086   1.097   1.165   1.179   1.104   1.101   1.095   1.117   1.092   1.082   1.081   1.084   1.083   1.088   1.149   1.160   1.226   1.152   1.141   1.127   1.168   1.164   1.181
   111.00    1.196   1.206   1.157   1.140   1.125   1.095   1.111   1.118   1.121   1.145   1.143   1.132   1.136   1.134   1.135   1.146   1.151   1.214   1.182   1.226   1.249   1.211   1.269   1.252   1.259   1.199   1.188   1.211   1.202   1.150   1.137   1.125   1.110   1.165   1.097   1.107   1.099   1.132   1.080   1.096   1.111   1.074   1.101   1.102   1.039   1.074   1.096   1.070   1.105   1.166   1.093   1.089   1.188   1.164   1.137   1.121   1.117   1.091   1.073   1.093   1.051   1.096   1.114   1.094   1.117   1.169   1.186   1.174   1.135   1.120   1.159   1.148   1.183
   106.00    1.199   1.199   1.186   1.127   1.074   1.083   1.081   1.075   1.105   1.114   1.111   1.078   1.127   1.112   1.164   1.151   1.191   1.220   1.179   1.217   1.262   1.238   1.220   1.308   1.230   1.287   1.214   1.197   1.215   1.157   1.199   1.123   1.117   1.158   1.124   1.071   1.065   1.115   1.089   1.097   1.111   1.090   1.067   1.071   1.075   1.076   1.104   1.099   1.159   1.147   1.115   1.156   1.215   1.158   1.145   1.123   1.145   1.114   1.051   1.067   1.087   1.078   1.145   1.147   1.161   1.131   1.155   1.172   1.146   1.178   1.166   1.169   1.192
   101.00    1.145   1.141   1.165   1.121   1.082   1.032   1.083   1.059   1.105   1.080   1.094   1.112   1.142   1.138   1.146   1.146   1.197   1.255   1.172   1.225   1.258   1.319   1.247   1.325   1.283   1.351   1.256   1.236   1.185   1.163   1.138   1.169   1.082   1.114   1.068   1.071   1.094   1.118   1.100   1.106   1.113   1.108   1.101   1.087   1.103   1.161   1.185   1.163   1.165   1.179   1.165   1.189   1.185   1.158   1.164   1.216   1.140   1.106   1.079   1.067   1.060   1.091   1.174   1.158   1.149   1.124   1.157   1.207   1.203   1.185   1.176   1.121   1.191
    96.00    1.129   1.148   1.111   1.110   1.070   1.100   1.071   1.089   1.076   1.108   1.093   1.080   1.097   1.105   1.114   1.172   1.184   1.226   1.167   1.183   1.246   1.257   1.284   1.294   1.308   1.332   1.274   1.193   1.214   1.225   1.163   1.180   1.136   1.128   1.133   1.086   1.041   1.095   1.137   1.123   1.115   1.154   1.131   1.156   1.144   1.164   1.179   1.166   1.170   1.206   1.250   1.194   1.195   1.164   1.133   1.156   1.161   1.079   1.101   1.072   1.082   1.119   1.172   1.161   1.179   1.150   1.155   1.187   1.198   1.178   1.140   1.153   1.169
    91.00    1.212   1.165   1.118   1.116   1.079   1.099   1.136   1.119   1.086   1.098   1.105   1.074   1.054   1.038   1.092   1.081   1.157   1.186   1.158   1.148   1.265   1.364   1.290   1.276   1.233   1.295   1.252   1.277   1.232   1.271   1.223   1.201   1.158   1.151   1.131   1.069   1.072   1.063   1.115   1.144   1.109   1.146   1.190   1.197   1.232   1.257   1.258   1.227   1.154   1.178   1.229   1.197   1.205   1.148   1.136   1.150   1.124   1.122   1.096   1.108   1.070   1.062   1.126   1.167   1.188   1.164   1.203   1.199   1.207   1.159   1.186   1.128   1.137
    86.00    1.170   1.108   1.146   1.123   1.134   1.102   1.117   1.137   1.107   1.066   1.105   1.060   1.027   1.057   1.077   1.119   1.090   1.131   1.182   1.174   1.231   1.306   1.333   1.270   1.239   1.253   1.272   1.276   1.259   1.318   1.326   1.256   1.218   1.155   1.119   1.090   1.081   1.098   1.125   1.125   1.151   1.156   1.183   1.186   1.189   1.215   1.247   1.204   1.172   1.205   1.172   1.137   1.162   1.092   1.154   1.147   1.152   1.138   1.135   1.088   1.048   1.101   1.140   1.155   1.187   1.174   1.175   1.222   1.198   1.186   1.186   1.180   1.157
    81.00    1.183   1.126   1.142   1.147   1.116   1.136   1.161   1.133   1.084   1.067   1.060   1.083   1.054   1.084   1.073   1.105   1.102   1.121   1.180   1.168   1.219   1.282   1.298   1.315   1.269   1.310   1.281   1.245   1.257   1.281   1.366   1.285   1.309   1.238   1.133   1.111   1.094   1.095   1.102   1.131   1.163   1.164   1.171   1.205   1.220   1.184   1.229   1.210   1.178   1.216   1.200   1.100   1.144   1.120   1.133   1.143   1.141   1.149   1.115   1.129   1.093   1.115   1.149   1.153   1.133   1.131   1.191   1.206   1.177   1.208   1.173   1.186   1.179
    76.00    1.156   1.169   1.157   1.115   1.168   1.185   1.153   1.130   1.093   1.076   1.076   1.081   1.106   1.064   1.084   1.082   1.082   1.085   1.159   1.215   1.185   1.265   1.290   1.287   1.257   1.317   1.298   1.261   1.221   1.312   1.345   1.305   1.303   1.264   1.190   1.119   1.115   1.093   1.147   1.123   1.134   1.168   1.160   1.158   1.199   1.188   1.200   1.207   1.195   1.166   1.204   1.134   1.155   1.142   1.143   1.172   1.164   1.166   1.070   1.085   1.096   1.134   1.132   1.167   1.156   1.169   1.236   1.193   1.219   1.202   1.207   1.189   1.182
    71.00    1.166   1.129   1.136   1.114   1.128   1.114   1.117   1.121   1.088   1.102   1.089   1.079   1.114   1.110   1.085   1.055   1.026   1.061   1.108   1.170   1.170   1.245   1.229   1.206   1.178   1.250   1.327   1.315   1.235   1.261   1.274   1.309   1.288   1.254   1.146   1.114   1.108   1.131   1.089   1.093   1.141   1.170   1.148   1.130   1.154   1.166   1.168   1.183   1.132   1.154   1.206   1.148   1.201   1.196   1.154   1.155   1.147   1.101   1.072   1.064   1.106   1.118   1.117   1.141   1.192   1.167   1.198   1.252   1.190   1.161   1.191   1.172   1.188
    66.00    1.113   1.116   1.094   1.121   1.137   1.126   1.149   1.097   1.087   1.095   1.122   1.145   1.190   1.128   1.085   1.095   1.040   1.067   1.114   1.111   1.210   1.213   1.195   1.229   1.249   1.240   1.295   1.353   1.249   1.228   1.274   1.303   1.289   1.228   1.191   1.186   1.132   1.111   1.071   1.098   1.147   1.164   1.137   1.193   1.181   1.173   1.189   1.166   1.119   1.153   1.146   1.177   1.155   1.162   1.145   1.147   1.140   1.109   1.085   1.075   1.115   1.141   1.103   1.121   1.157   1.181   1.203   1.210   1.146   1.181   1.211   1.188   1.157
    61.00    1.065   1.118   1.093   1.118   1.148   1.142   1.124   1.135   1.101   1.087   1.111   1.143   1.115   1.132   1.071   1.076   1.054   1.080   1.124   1.156   1.161   1.107   1.198   1.168   1.217   1.272   1.310   1.292   1.298   1.290   1.225   1.224   1.328   1.312   1.210   1.188   1.163   1.113   1.110   1.118   1.150   1.150   1.127   1.153   1.146   1.133   1.142   1.178   1.182   1.219   1.232   1.193   1.134   1.120   1.149   1.172   1.159   1.129   1.110   1.108   1.118   1.122   1.160   1.155   1.087   1.122   1.172   1.177   1.159   1.170   1.180   1.168   1.134
    56.00    1.137   1.116   1.088   1.150   1.163   1.164   1.124   1.107   1.069   1.112   1.103   1.135   1.128   1.120   1.085   1.067   1.069   1.073   1.130   1.168   1.107   1.117   1.145   1.102   1.198   1.186   1.270   1.183   1.233   1.158   1.261   1.292   1.319   1.254   1.239   1.186   1.162   1.120   1.108   1.110   1.162   1.136   1.168   1.167   1.130   1.204   1.239   1.150   1.170   1.239   1.195   1.181   1.177   1.183   1.138   1.178   1.126   1.091   1.125   1.184   1.095   1.117   1.128   1.131   1.124   1.139   1.141   1.158   1.185   1.145   1.123   1.121   1.132
    51.00    1.133   1.113   1.089   1.180   1.159   1.141   1.094   1.096   1.126   1.092   1.132   1.133   1.124   1.074   1.097   1.102   1.074   1.066   1.087   1.139   1.177   1.143   1.155   1.103   1.139   1.153   1.204   1.211   1.191   1.171   1.227   1.248   1.281   1.278   1.267   1.267   1.180   1.149   1.124   1.144   1.155   1.172   1.216   1.186   1.184   1.205   1.184   1.189   1.199   1.245   1.253   1.246   1.226   1.145   1.158   1.125   1.077   1.126   1.153   1.160   1.149   1.127   1.149   1.132   1.143   1.118   1.115   1.103   1.137   1.139   1.147   1.141   1.115
    46.00    1.099   1.092   1.139   1.186   1.160   1.143   1.092   1.100   1.131   1.080   1.099   1.111   1.106   1.121   1.127   1.124   1.090   1.071   1.092   1.139   1.170   1.162   1.106   1.085   1.120   1.122   1.148   1.138   1.129   1.123   1.186   1.218   1.244   1.262   1.225   1.180   1.187   1.166   1.147   1.194   1.202   1.183   1.190   1.212   1.218   1.186   1.159   1.132   1.201   1.226   1.252   1.214   1.228   1.190   1.171   1.135   1.106   1.103   1.164   1.162   1.166   1.170   1.152   1.151   1.135   1.172   1.151   1.116   1.154   1.184   1.128   1.123   1.101
    41.00    1.147   1.173   1.179   1.179   1.173   1.159   1.085   1.145   1.172   1.101   1.077   1.063   1.141   1.150   1.160   1.171   1.093   1.141   1.135   1.140   1.127   1.179   1.130   1.080   1.056   1.131   1.142   1.141   1.078   1.048   1.132   1.199   1.202   1.186   1.159   1.137   1.189   1.151   1.177   1.159   1.158   1.186   1.244   1.192   1.183   1.186   1.220   1.198   1.232   1.260   1.262   1.237   1.227   1.203   1.160   1.179   1.143   1.107   1.143   1.141   1.149   1.144   1.131   1.164   1.152   1.179   1.175   1.143   1.157   1.152   1.140   1.131   1.061
    36.00    1.111   1.180   1.129   1.109   1.113   1.177   1.130   1.159   1.172   1.116   1.066   1.077   1.137   1.204   1.181   1.139   1.079   1.101   1.117   1.097   1.151   1.176   1.110   1.106   1.098   1.150   1.147   1.154   1.114   1.067   1.114   1.143   1.149   1.158   1.137   1.132   1.140   1.146   1.137   1.135   1.168   1.211   1.204   1.190   1.236   1.219   1.242   1.208   1.204   1.203   1.220   1.212   1.206   1.196   1.173   1.168   1.173   1.181   1.159   1.133   1.146   1.132   1.148   1.168   1.233   1.233   1.240   1.198   1.181   1.133   1.135   1.103   1.100
    31.00    1.118   1.119   1.145   1.108   1.098   1.136   1.176   1.140   1.226   1.195   1.107   1.108   1.160   1.217   1.219   1.156   1.129   1.090   1.120   1.070   1.123   1.134   1.131   1.148   1.091   1.134   1.210   1.156   1.186   1.117   1.113   1.096   1.127   1.134   1.106   1.134   1.141   1.126   1.120   1.131   1.170   1.207   1.194   1.230   1.246   1.209   1.225   1.183   1.209   1.202   1.152   1.226   1.254   1.237   1.237   1.168   1.146   1.180   1.114   1.151   1.164   1.120   1.205   1.290   1.319   1.256   1.267   1.268   1.225   1.136   1.105   1.091   1.090
    26.00    1.125   1.085   1.126   1.125   1.118   1.176   1.150   1.202   1.184   1.227   1.152   1.115   1.154   1.175   1.153   1.144   1.143   1.099   1.095   1.121   1.167   1.138   1.168   1.148   1.145   1.185   1.144   1.182   1.239   1.190   1.153   1.208   1.136   1.096   1.087   1.124   1.132   1.150   1.119   1.137   1.183   1.213   1.249   1.277   1.271   1.234   1.259   1.280   1.245   1.213   1.185   1.229   1.274   1.246   1.226   1.193   1.188   1.138   1.121   1.140   1.155   1.164   1.202   1.288   1.292   1.272   1.243   1.182   1.177   1.113   1.104   1.108   1.133
    21.00    1.153   1.146   1.150   1.175   1.170   1.178   1.146   1.158   1.188   1.158   1.091   1.103   1.101   1.077   1.114   1.142   1.167   1.088   1.157   1.125   1.121   1.132   1.130   1.151   1.169   1.137   1.158   1.186   1.178   1.227   1.208   1.198   1.145   1.112   1.121   1.133   1.181   1.178   1.176   1.139   1.182   1.157   1.208   1.235   1.227   1.208   1.256   1.193   1.240   1.253   1.242   1.229   1.221   1.176   1.168   1.227   1.183   1.199   1.124   1.109   1.117   1.182   1.219   1.255   1.262   1.213   1.173   1.159   1.147   1.066   1.072   1.138   1.180
    16.00    1.162   1.160   1.168   1.200   1.171   1.141   1.191   1.185   1.112   1.151   1.069   1.065   1.065   1.115   1.122   1.147   1.164   1.129   1.155   1.147   1.111   1.130   1.117   1.087   1.146   1.113   1.134   1.075   1.141   1.168   1.190   1.123   1.148   1.130   1.132   1.172   1.193   1.176   1.180   1.137   1.155   1.201   1.197   1.219   1.222   1.214   1.256   1.241   1.201   1.219   1.249   1.211   1.209   1.172   1.156   1.150   1.151   1.191   1.189   1.152   1.086   1.095   1.184   1.212   1.206   1.189   1.162   1.161   1.136   1.101   1.127   1.157   1.176
    11.00    1.161   1.144   1.136   1.183   1.182   1.143   1.183   1.167   1.158   1.113   1.124   1.083   1.131   1.153   1.124   1.112   1.199   1.155   1.149   1.144   1.107   1.109   1.089   1.041   1.066   1.091   1.119   1.065   1.109   1.134   1.110   1.153   1.128   1.125   1.160   1.230   1.263   1.253   1.192   1.201   1.180   1.223   1.223   1.209   1.197   1.205   1.253   1.282   1.224   1.229   1.260   1.227   1.244   1.184   1.173   1.152   1.145   1.194   1.155   1.170   1.125   1.148   1.175   1.186   1.148   1.177   1.202   1.170   1.142   1.116   1.164   1.135   1.208
     6.00    1.147   1.123   1.149   1.176   1.145   1.158   1.137   1.102   1.110   1.148   1.119   1.117   1.130   1.121   1.145   1.154   1.189   1.182   1.144   1.183   1.118   1.106   1.079   1.067   1.070   1.090   1.078   1.081   1.078   1.121   1.109   1.186   1.141   1.158   1.209   1.252   1.230   1.228   1.240   1.186   1.226   1.200   1.167   1.161   1.185   1.222   1.260   1.249   1.226   1.225   1.233   1.247   1.224   1.226   1.152   1.158   1.129   1.129   1.178   1.199   1.170   1.176   1.154   1.110   1.151   1.188   1.181   1.151   1.133   1.162   1.155   1.207   1.171
     1.00    1.153   1.171   1.151   1.152   1.104   1.139   1.081   1.054   1.092   1.118   1.135   1.111   1.166   1.169   1.167   1.162   1.206   1.189   1.189   1.193   1.161   1.092   1.069   1.068   1.102   1.126   1.126   1.126   1.095   1.140   1.140   1.213   1.203   1.204   1.221   1.278   1.316   1.278   1.237   1.188   1.234   1.207   1.174   1.165   1.198   1.226   1.175   1.248   1.188   1.174   1.153   1.179   1.160   1.169   1.187   1.182   1.147   1.102   1.130   1.173   1.177   1.183   1.199   1.172   1.209   1.191   1.205   1.170   1.170   1.168   1.150   1.188   1.228

   Mean standard deviation across all grid points:
      u component:    2.091 m/s
      v component:    1.822 m/s
      w component:    1.158 m/s


U-component (X) statistics from the interpolated hub point:

   Mean =  11.6748 m/s
   TI   =  17.1033 %


Processing complete.  10991 CPU seconds used.
