
This summary file was generated by TurbSim (from OpenFAST-v3.3.0) on 09-Jan-2023 at 13:47:27.


Runtime Options:

         1  Random seed #1
         1  Random seed #2
         F  Output binary HH turbulence parameters?
         F  Output formatted turbulence parameters?
         F  Output AeroDyn HH files?
         T  Output AeroDyn FF files?
         F  Output BLADED FF files?
         F  Output tower data?
         F  Output HAWC FF files?
         F  Output formatted FF files?
         T  Output coherent turbulence time step file?
 0 -  NONE  IEC turbulence models scaled to exact specified standard deviation


Turbine/Model Specifications:

        61  Vertical grid-point matrix dimension
        73  Horizontal grid-point matrix dimension
     0.100  Time step [seconds]
   600.000  Analysis time [seconds]
   600.000  Usable output time [seconds]
   151.000  Hub height [m]
   300.000  Grid height [m]
   360.000  Grid width [m]
     0.000  Vertical flow angle [degrees]
     0.000  Horizontal flow angle [degrees]


Meteorological Boundary Conditions:

    TIMESR  User-input time series spectral model
       N/A  IEC standard
       N/A  IEC turbulence characteristic
       N/A  IEC turbulence type
       N/A  IEC Extreme Turbulence Model (ETM) "c" parameter [m/s]
       PL   Wind profile type
   119.000  Reference height [m]
    11.400  Reference wind speed [m/s]
       N/A  Jet height [m]
     0.100  Power law exponent
     0.030  Surface roughness length [m]


Non-IEC Meteorological Boundary Conditions:

    45.000  Site latitude [degrees]
     0.050  Gradient Richardson number
     0.529  Friction or shear velocity [m/s]
       N/A  Mixing layer depth [m]
       N/A  Mean hub u'w' Reynolds stress
       N/A  Mean hub u'v' Reynolds stress
       N/A  Mean hub v'w' Reynolds stress


Spatial Coherence Models:

       IEC  u-component coherence model
       IEC  v-component coherence model
       IEC  w-component coherence model
(   12.000, 0.659E-03)  u-component coherence parameters
(   12.000, 0.659E-03)  v-component coherence parameters
(   12.000, 0.659E-03)  w-component coherence parameters
       N/A  Coherence exponent


Coherent Turbulence Scaling Parameters:

.\EventData
            Name of the path containing the coherent turbulence data files
       les  Type of coherent turbulence data files
     0.500  Disturbance scale (ratio of wave height to rotor diameter)
     0.500  Fractional location of tower centerline from right
     0.000  Fractional location of hub height from the bottom of the dataset
    30.000  Minimum start time for coherent structures [seconds]


Profiles from User-Defined Time-Series Input:

  Height   Wind Speed   Horizontal Angle   Vertical Angle
   (m)        (m/s)          (deg)              (deg)    
  ------   ----------   ----------------   --------------
  119.00      11.47           0.00               -0.00


You have requested that the following file(s) be generated:

   HighT2.bts (AeroDyn/TurbSim full-field wind file)


Turbulence Simulation Scaling Parameter Summary:

   Turbulence model used                            =  User-input time series
   Gradient Richardson number                       =    0.050
   Monin-Obukhov (M-O) z/L parameter                =    0.067
   Monin-Obukhov (M-O) length scale                 = 2265.000 m
   Mean wind speed at hub height                    =   11.675 m/s

   Wind profile type                                =  Power law
   Power law exponent                               =    0.100
   Mean shear across rotor disk                     =    0.018 (m/s)/m
   Assumed rotor diameter                           =  300.000 m
   Surface roughness length                         =    0.030 m

   Nyquist frequency of turbulent wind field        =    5.000 Hz

   Number of time steps in the FFT                  =     6000
   Number of time steps output                      =     6000
   Number of points simulated                       =     4454


Mean Flow Angles:

   Vertical   =   0.0 degrees
   Horizontal =   0.0 degrees

Mean Wind Speed Profile:

   Height    Wind Speed   Horizontal Angle  Vertical Angle  U-comp (X)   V-comp (Y)   W-comp (Z)
     (m)        (m/s)         (degrees)       (degrees)       (m/s)        (m/s)        (m/s)   
   ------    ----------   ----------------  --------------  ----------   ----------   ----------
    301.0       12.51            0.00            0.00         12.51         0.00         0.00
    296.0       12.49            0.00            0.00         12.49         0.00         0.00
    291.0       12.47            0.00            0.00         12.47         0.00         0.00
    286.0       12.44            0.00            0.00         12.44         0.00         0.00
    281.0       12.42            0.00            0.00         12.42         0.00         0.00
    276.0       12.40            0.00            0.00         12.40         0.00         0.00
    271.0       12.38            0.00            0.00         12.38         0.00         0.00
    266.0       12.35            0.00            0.00         12.35         0.00         0.00
    261.0       12.33            0.00            0.00         12.33         0.00         0.00
    256.0       12.31            0.00            0.00         12.31         0.00         0.00
    251.0       12.28            0.00            0.00         12.28         0.00         0.00
    246.0       12.26            0.00            0.00         12.26         0.00         0.00
    241.0       12.23            0.00            0.00         12.23         0.00         0.00
    236.0       12.21            0.00            0.00         12.21         0.00         0.00
    231.0       12.18            0.00            0.00         12.18         0.00         0.00
    226.0       12.16            0.00            0.00         12.16         0.00         0.00
    221.0       12.13            0.00            0.00         12.13         0.00         0.00
    216.0       12.10            0.00            0.00         12.10         0.00         0.00
    211.0       12.07            0.00            0.00         12.07         0.00         0.00
    206.0       12.04            0.00            0.00         12.04         0.00         0.00
    201.0       12.01            0.00            0.00         12.01         0.00         0.00
    196.0       11.98            0.00            0.00         11.98         0.00         0.00
    191.0       11.95            0.00            0.00         11.95         0.00         0.00
    186.0       11.92            0.00            0.00         11.92         0.00         0.00
    181.0       11.89            0.00            0.00         11.89         0.00         0.00
    176.0       11.85            0.00            0.00         11.85         0.00         0.00
    171.0       11.82            0.00            0.00         11.82         0.00         0.00
    166.0       11.79            0.00            0.00         11.79         0.00         0.00
    161.0       11.75            0.00            0.00         11.75         0.00         0.00
    156.0       11.71            0.00            0.00         11.71         0.00         0.00
    151.0       11.67            0.00            0.00         11.67         0.00         0.00
    146.0       11.64            0.00            0.00         11.64         0.00         0.00
    141.0       11.60            0.00            0.00         11.60         0.00         0.00
    136.0       11.55            0.00            0.00         11.55         0.00         0.00
    131.0       11.51            0.00            0.00         11.51         0.00         0.00
    126.0       11.47            0.00            0.00         11.47         0.00         0.00
    121.0       11.42            0.00            0.00         11.42         0.00         0.00
    116.0       11.37            0.00            0.00         11.37         0.00         0.00
    111.0       11.32            0.00            0.00         11.32         0.00         0.00
    106.0       11.27            0.00            0.00         11.27         0.00         0.00
    101.0       11.21            0.00            0.00         11.21         0.00         0.00
     96.0       11.16            0.00            0.00         11.16         0.00         0.00
     91.0       11.10            0.00            0.00         11.10         0.00         0.00
     86.0       11.04            0.00            0.00         11.04         0.00         0.00
     81.0       10.97            0.00            0.00         10.97         0.00         0.00
     76.0       10.90            0.00            0.00         10.90         0.00         0.00
     71.0       10.83            0.00            0.00         10.83         0.00         0.00
     66.0       10.75            0.00            0.00         10.75         0.00         0.00
     61.0       10.66            0.00            0.00         10.66         0.00         0.00
     56.0       10.57            0.00            0.00         10.57         0.00         0.00
     51.0       10.47            0.00            0.00         10.47         0.00         0.00
     46.0       10.37            0.00            0.00         10.37         0.00         0.00
     41.0       10.25            0.00            0.00         10.25         0.00         0.00
     36.0       10.12            0.00            0.00         10.12         0.00         0.00
     31.0        9.97            0.00            0.00          9.97         0.00         0.00
     26.0        9.79            0.00            0.00          9.79         0.00         0.00
     21.0        9.58            0.00            0.00          9.58         0.00         0.00
     16.0        9.33            0.00            0.00          9.33         0.00         0.00
     11.0        8.98            0.00            0.00          8.98         0.00         0.00
      6.0        8.46            0.00            0.00          8.46         0.00         0.00
      1.0        7.07            0.00            0.00          7.07         0.00         0.00


Harvested Random Seeds after Generation of the Random Numbers:

   2107445636 Harvested seed # 1
   1527974726 Harvested seed # 2


Hub-Height Simulated Turbulence Statistical Summary:

   Type of Wind        Min (m/s)   Mean (m/s)    Max (m/s)  Sigma (m/s)       TI (%)
   ----------------    ---------   ----------    ---------  -----------       ------
   Longitudinal (u)         2.95        11.67        18.44        2.365       20.257
   Lateral (v)             -6.11         0.00         6.34        2.012       17.235
   Vertical (w)            -3.33        -0.00         4.26        1.152        9.869
   U component              2.95        11.67        18.44        2.365       20.257
   V component             -6.11         0.00         6.34        2.012       17.235
   W component             -3.33        -0.00         4.26        1.152        9.869
   Horizontal (U&V)         4.44        11.86        18.86        2.309       19.475
   Total                    4.63        11.92        18.95        2.294       19.252

                       Min Reynolds     Mean Reynolds    Max Reynolds    Correlation
   Product             Stress (m/s)^2   Stress (m/s)^2   Stress (m/s)^2  Coefficient
   ----------------    --------------   --------------   --------------  -----------
   u'w'                    -18.245            -0.073            13.547        -0.027
   u'v'                    -38.101            -0.046            31.012        -0.010
   v'w'                    -16.336            -0.170            11.345        -0.073


   Friction Velocity (Ustar)  =      0.270 m/s
   Maximum Instantaneous TKE  =     49.178 (m/s)^2
   Maximum Instantaneous CTKE =     21.326 (m/s)^2


Grid Point Variance Summary:

   Y-coord -180.00 -175.00 -170.00 -165.00 -160.00 -155.00 -150.00 -145.00 -140.00 -135.00 -130.00 -125.00 -120.00 -115.00 -110.00 -105.00 -100.00  -95.00  -90.00  -85.00  -80.00  -75.00  -70.00  -65.00  -60.00  -55.00  -50.00  -45.00  -40.00  -35.00  -30.00  -25.00  -20.00  -15.00  -10.00   -5.00    0.00    5.00   10.00   15.00   20.00   25.00   30.00   35.00   40.00   45.00   50.00   55.00   60.00   65.00   70.00   75.00   80.00   85.00   90.00   95.00  100.00  105.00  110.00  115.00  120.00  125.00  130.00  135.00  140.00  145.00  150.00  155.00  160.00  165.00  170.00  175.00  180.00

   Height   Standard deviation at grid points for the u component:
   301.00    2.385   2.399   2.380   2.103   2.198   1.967   2.122   2.143   2.220   2.236   2.152   2.155   2.088   2.003   1.997   1.960   1.938   1.842   1.870   1.859   1.918   1.639   1.701   1.752   1.913   1.998   2.148   2.070   2.076   1.993   2.049   2.106   2.179   2.039   2.162   2.251   2.130   2.222   2.283   2.068   2.050   2.154   2.058   2.115   2.178   2.109   2.256   2.269   2.275   2.121   2.034   2.141   2.226   2.111   2.299   2.305   2.342   2.347   2.266   2.190   1.942   2.091   1.963   1.861   2.026   2.100   2.176   2.086   2.141   2.329   2.226   2.210   2.202
   296.00    2.193   2.233   2.167   2.027   2.126   1.951   2.096   2.211   2.133   2.094   2.150   2.188   2.076   1.829   1.956   1.935   1.747   1.767   1.712   1.798   1.622   1.713   1.721   1.786   1.892   2.102   2.043   2.166   1.991   1.968   2.187   2.106   2.143   2.086   2.105   2.111   2.262   2.111   2.276   2.138   2.136   2.150   2.069   2.192   2.188   2.056   2.076   2.168   2.136   2.087   2.151   2.201   2.117   2.110   2.178   2.223   2.267   2.217   2.154   2.036   2.017   2.039   2.132   1.954   1.972   1.991   2.198   2.151   2.153   2.423   2.297   2.139   2.048
   291.00    1.985   2.233   1.998   2.075   2.109   1.985   1.936   2.015   2.127   2.151   2.055   2.033   1.925   1.886   1.882   1.843   1.780   1.874   1.905   1.759   1.738   1.748   1.886   1.803   1.828   1.865   2.048   2.012   2.064   2.066   2.078   2.134   2.123   2.159   2.232   2.248   2.267   2.091   2.063   2.037   2.013   2.108   1.963   1.996   2.027   1.932   2.050   2.099   2.315   2.352   2.332   2.303   2.271   2.180   2.267   2.259   2.100   2.157   1.981   1.943   1.974   2.029   1.975   1.966   2.020   2.129   2.253   2.262   2.314   2.334   2.273   2.226   2.197
   286.00    2.227   2.196   2.121   2.055   2.041   2.091   2.034   2.001   2.037   2.031   2.008   1.841   1.847   1.896   1.946   1.852   1.895   1.840   1.937   1.751   1.707   1.807   1.871   1.848   1.786   1.962   1.949   2.082   1.941   2.074   2.162   2.250   2.053   2.109   2.101   2.194   2.066   2.078   2.027   2.125   2.182   2.190   1.953   1.887   1.908   1.904   1.993   2.067   2.160   2.151   2.110   2.163   2.046   2.168   2.074   2.144   2.215   2.069   1.926   1.854   1.804   2.058   2.104   1.973   2.150   2.152   2.051   2.317   2.262   2.149   2.118   2.031   2.220
   281.00    2.059   2.143   2.133   2.013   2.148   2.237   2.045   1.920   1.877   1.970   1.967   1.986   1.758   1.854   1.974   2.093   1.985   1.894   1.926   1.759   1.782   1.776   1.969   2.035   2.015   2.003   2.009   2.109   2.034   2.118   2.328   2.387   2.197   2.211   2.132   2.151   2.072   2.015   2.073   2.082   2.015   2.072   2.115   2.002   2.073   2.139   2.110   1.997   2.015   2.050   2.030   2.111   1.924   2.147   2.198   2.157   2.026   1.943   2.024   1.874   1.900   2.049   2.051   1.883   2.083   2.180   2.009   2.092   2.202   2.291   2.210   2.144   2.210
   276.00    2.038   2.129   1.988   2.190   2.254   2.218   2.019   1.918   2.014   2.034   2.011   1.948   1.899   2.018   1.891   1.920   2.068   2.028   1.976   1.875   1.817   1.991   1.948   2.119   2.148   2.052   2.146   2.059   2.152   2.267   2.349   2.450   2.344   2.361   2.158   2.201   2.123   1.877   1.986   2.077   2.130   2.048   2.182   2.075   2.141   2.172   1.969   2.014   2.101   2.158   2.167   2.123   1.937   1.955   2.152   2.142   2.129   1.971   1.857   2.036   2.027   1.944   2.119   2.074   2.145   2.285   2.073   2.158   2.179   2.100   2.232   1.978   2.167
   271.00    1.917   2.193   2.188   2.120   2.315   2.225   2.275   2.135   1.963   2.043   2.096   2.065   2.077   1.983   1.787   1.856   2.008   2.093   2.019   2.000   1.944   2.054   2.219   2.169   2.164   2.034   2.162   2.146   2.263   2.380   2.503   2.506   2.542   2.478   2.385   2.222   2.161   2.039   2.087   2.145   2.290   2.240   2.277   2.273   2.246   2.091   2.121   2.139   2.296   2.155   2.206   2.010   1.819   1.882   1.886   2.073   2.040   1.941   1.993   1.939   1.933   2.068   2.235   2.342   2.285   2.289   2.339   2.375   2.318   2.162   2.242   2.128   2.179
   266.00    2.035   2.166   2.236   2.286   2.293   2.176   2.230   2.253   1.995   2.117   2.169   2.214   2.097   1.881   1.964   2.069   2.015   2.109   1.959   1.936   1.955   2.190   2.110   2.114   2.123   2.028   2.117   2.254   2.258   2.364   2.429   2.299   2.551   2.632   2.685   2.362   2.278   2.202   2.105   2.162   2.328   2.313   2.360   2.290   2.363   2.269   2.255   2.176   2.289   2.176   2.089   1.936   1.848   1.906   1.845   1.912   1.870   1.955   2.165   2.143   1.946   2.062   2.375   2.549   2.338   2.433   2.394   2.385   2.127   1.992   2.165   2.072   2.083
   261.00    2.123   2.134   2.216   2.200   2.227   2.184   2.107   2.076   1.989   2.074   2.144   2.037   1.963   1.974   2.033   2.050   2.144   2.015   2.051   2.042   2.066   2.118   2.066   2.110   2.156   2.224   2.219   2.254   2.382   2.526   2.497   2.492   2.630   2.662   2.579   2.611   2.511   2.529   2.309   2.336   2.264   2.352   2.345   2.395   2.557   2.591   2.505   2.257   2.155   2.138   1.930   1.872   1.965   1.786   1.818   1.834   2.022   1.903   1.948   1.979   2.001   2.041   2.276   2.513   2.498   2.449   2.319   2.197   2.060   2.204   2.125   2.182   2.113
   256.00    2.190   2.187   2.299   2.325   2.227   2.120   2.120   2.182   2.036   2.086   2.043   1.988   2.068   1.958   1.983   2.136   2.123   2.119   2.046   2.022   1.981   2.118   1.971   1.996   2.063   2.031   2.191   2.197   2.290   2.269   2.385   2.485   2.563   2.586   2.624   2.553   2.582   2.664   2.560   2.305   2.393   2.251   2.215   2.238   2.511   2.380   2.456   2.411   2.089   1.950   1.901   1.999   2.003   2.033   2.004   1.926   2.072   1.937   2.105   1.898   1.928   1.996   2.161   2.424   2.572   2.367   2.372   2.236   2.222   2.257   2.165   2.220   2.197
   251.00    2.328   2.341   2.155   2.313   2.258   2.189   2.157   2.167   2.179   2.053   2.123   2.335   2.306   2.116   2.068   2.111   2.037   2.089   2.045   1.996   2.035   1.927   1.920   2.036   2.108   2.100   2.096   2.070   2.237   2.366   2.359   2.400   2.685   2.705   2.562   2.554   2.465   2.588   2.429   2.322   2.461   2.408   2.419   2.330   2.471   2.200   2.429   2.229   2.198   2.159   2.235   2.119   2.192   2.162   2.020   2.163   2.023   1.953   2.116   2.002   2.121   1.997   2.295   2.357   2.558   2.490   2.512   2.419   2.429   2.454   2.233   2.172   2.229
   246.00    2.385   2.398   2.295   2.186   2.137   2.101   2.061   2.155   2.115   2.045   2.106   2.318   2.391   2.203   2.178   2.134   2.059   2.032   2.166   2.052   1.929   1.998   1.901   2.128   2.102   2.119   2.130   2.196   2.213   2.345   2.364   2.424   2.547   2.524   2.632   2.514   2.570   2.455   2.385   2.279   2.265   2.130   2.197   2.139   2.138   2.181   2.359   2.329   2.247   2.295   2.277   2.210   2.050   2.152   2.169   2.063   2.137   2.177   2.093   2.016   1.978   2.004   2.175   2.297   2.435   2.497   2.264   2.383   2.404   2.532   2.472   2.254   2.103
   241.00    2.242   2.227   2.225   2.081   2.059   2.101   2.061   2.083   2.158   2.073   2.223   2.308   2.513   2.464   2.262   2.201   2.314   2.251   2.127   2.095   2.096   2.011   2.072   1.952   2.056   2.190   2.117   2.135   2.445   2.554   2.566   2.324   2.451   2.561   2.401   2.568   2.489   2.302   2.103   2.048   2.135   2.018   2.104   2.097   2.186   2.184   2.309   2.422   2.426   2.354   2.278   2.019   2.043   2.073   2.152   2.069   2.060   2.146   2.047   2.160   1.997   2.116   2.247   2.258   2.345   2.181   2.109   2.210   2.318   2.520   2.323   2.139   2.139
   236.00    2.157   2.255   2.227   2.094   2.177   2.159   2.157   2.042   2.157   2.213   2.314   2.457   2.551   2.295   2.304   2.338   2.285   1.961   2.091   2.054   2.030   2.188   1.982   1.905   1.936   2.049   2.228   2.316   2.555   2.708   2.562   2.512   2.470   2.429   2.455   2.438   2.301   2.181   1.849   1.948   2.079   2.129   2.214   2.101   2.078   2.172   2.214   2.324   2.310   2.339   2.120   2.098   2.209   2.153   2.074   2.059   2.100   2.107   1.982   2.111   2.215   2.327   2.312   2.413   2.353   2.323   2.337   2.194   2.289   2.484   2.220   2.258   2.201
   231.00    2.046   2.101   2.117   2.202   2.077   2.137   2.118   2.085   2.297   2.308   2.321   2.144   2.347   2.298   2.255   2.304   2.324   2.043   2.121   1.903   2.121   2.134   1.935   1.998   2.036   2.019   2.141   2.445   2.505   2.667   2.635   2.521   2.434   2.331   2.274   2.177   2.298   2.235   1.918   1.959   2.168   2.214   2.108   2.223   2.118   2.091   2.220   2.226   2.426   2.360   2.303   2.222   2.174   2.167   2.129   1.971   2.117   2.105   1.969   2.090   2.315   2.154   2.186   2.128   2.319   2.391   2.458   2.374   2.394   2.325   2.371   2.209   2.259
   226.00    2.178   2.161   2.227   2.268   2.108   2.132   2.249   2.340   2.215   2.370   2.319   2.238   2.229   2.299   2.244   2.285   2.204   2.081   2.126   2.075   1.971   1.960   1.993   2.059   2.144   2.065   2.183   2.442   2.621   2.655   2.551   2.437   2.473   2.457   2.375   2.410   2.218   2.175   2.069   1.986   2.086   2.280   2.154   2.113   2.310   2.152   2.160   2.345   2.284   2.409   2.238   2.140   2.161   2.273   2.188   2.030   2.096   2.153   2.140   2.228   2.257   2.123   2.096   2.140   2.501   2.388   2.456   2.455   2.476   2.483   2.406   2.110   2.226
   221.00    2.049   2.159   2.318   2.139   2.087   2.159   2.144   2.261   2.380   2.436   2.267   2.477   2.485   2.287   2.099   2.100   2.073   2.047   2.003   1.869   1.890   1.791   1.980   2.065   2.028   2.195   2.064   2.314   2.619   2.531   2.672   2.389   2.545   2.507   2.456   2.291   2.328   2.089   1.850   1.892   2.009   2.124   2.306   2.196   2.318   2.199   2.155   2.205   2.110   2.077   2.226   2.184   2.202   2.212   2.067   2.092   2.126   2.196   2.222   2.146   2.204   2.137   1.990   2.151   2.487   2.639   2.459   2.571   2.539   2.459   2.311   2.182   2.329
   216.00    2.104   2.014   2.179   2.200   2.181   2.189   2.333   2.359   2.346   2.358   2.332   2.416   2.563   2.431   2.331   2.188   2.011   2.067   1.922   1.679   1.947   1.970   2.066   2.091   2.152   2.192   2.276   2.375   2.629   2.650   2.751   2.670   2.478   2.580   2.296   2.290   2.334   2.013   1.987   1.867   2.091   2.332   2.252   2.245   2.069   2.287   2.049   2.085   2.082   1.999   2.160   2.206   2.069   2.201   2.041   2.132   2.352   2.388   2.432   2.275   2.393   2.133   1.918   2.208   2.357   2.533   2.438   2.478   2.200   2.433   2.437   2.263   2.370
   211.00    2.007   2.090   2.021   2.239   2.302   2.447   2.353   2.181   2.178   2.325   2.249   2.356   2.489   2.427   2.286   2.202   2.021   2.061   1.870   1.861   1.928   1.927   2.033   2.154   2.333   2.577   2.545   2.675   2.745   2.791   2.880   2.725   2.579   2.579   2.532   2.312   2.273   2.045   1.981   2.115   2.034   2.130   2.093   2.095   2.053   2.117   1.950   2.044   1.979   1.909   1.923   2.002   2.187   2.171   2.105   2.046   2.122   2.224   2.314   2.414   2.315   2.137   1.993   2.156   2.344   2.441   2.308   2.258   2.327   2.347   2.138   2.254   2.480
   206.00    1.717   1.932   2.065   2.048   2.226   2.261   2.328   2.101   2.163   2.220   2.174   2.247   2.244   2.161   2.205   2.069   1.907   1.911   1.876   1.873   2.111   2.012   2.125   1.970   2.303   2.475   2.528   2.691   2.574   2.810   3.006   3.062   2.710   2.583   2.630   2.463   2.115   2.079   1.964   2.185   2.195   2.134   2.005   1.834   2.082   1.993   1.947   2.025   1.936   1.930   2.070   1.861   2.007   2.187   2.046   2.089   2.097   2.186   2.215   2.268   2.310   2.329   2.304   2.130   2.293   2.228   2.133   2.154   2.210   2.371   2.160   2.059   2.158
   201.00    1.743   1.938   1.993   2.079   2.060   2.195   2.170   2.017   2.096   2.220   2.137   2.193   2.176   2.041   2.057   1.958   1.878   2.013   2.144   1.996   2.064   2.082   2.132   2.266   2.321   2.327   2.441   2.632   2.681   2.851   2.711   2.869   2.776   2.785   2.474   2.239   2.263   2.296   2.346   2.319   2.178   2.073   2.036   1.843   1.999   2.113   1.841   1.819   1.865   1.849   1.877   1.915   2.040   2.116   2.074   1.977   1.969   2.142   2.186   2.291   2.213   2.184   2.215   2.135   2.210   2.183   2.188   2.259   2.122   2.181   2.090   2.009   2.230
   196.00    1.900   1.882   1.820   2.028   2.007   2.130   2.198   2.256   2.065   2.186   2.211   2.123   2.234   1.907   1.859   1.780   1.893   2.049   2.205   1.962   1.948   2.079   2.198   2.439   2.473   2.642   2.639   2.603   2.656   2.791   2.824   2.775   2.749   2.555   2.439   2.504   2.305   2.202   2.284   2.122   2.116   2.043   2.022   1.905   1.983   2.046   1.978   1.925   1.910   1.879   1.902   1.992   1.990   2.093   1.933   2.056   1.936   2.055   2.130   2.271   2.338   2.279   2.194   2.124   2.208   2.193   2.184   1.976   2.049   1.974   2.031   1.972   1.927
   191.00    1.930   1.975   1.974   2.135   2.163   2.241   2.380   2.380   2.187   2.093   2.252   2.123   1.987   2.055   1.998   1.941   1.897   2.053   2.052   1.993   2.075   2.125   2.389   2.457   2.568   2.719   2.679   2.774   2.951   2.734   2.792   2.742   2.715   2.454   2.461   2.556   2.382   2.345   2.295   1.972   1.988   1.973   1.919   1.960   2.081   1.861   1.842   1.906   1.955   1.876   1.875   2.066   2.087   2.109   2.130   2.205   2.043   2.008   1.886   2.071   2.192   2.109   2.150   2.269   2.291   1.986   1.947   1.943   2.022   1.973   2.087   1.960   1.862
   186.00    2.073   2.006   2.029   2.144   2.059   2.114   2.238   2.315   2.179   2.268   2.319   2.307   2.101   2.286   2.088   2.022   1.923   1.946   1.964   2.046   2.068   2.265   2.339   2.454   2.406   2.624   2.669   2.803   2.994   2.713   2.732   2.736   2.791   2.733   2.549   2.448   2.450   2.340   2.096   1.965   1.846   1.920   2.035   2.091   2.054   1.950   1.897   2.053   1.935   1.950   2.024   2.094   2.004   2.161   2.133   2.105   2.054   2.035   2.090   2.209   2.181   2.075   2.080   2.031   2.071   1.953   1.947   1.821   1.867   1.880   1.947   1.941   1.991
   181.00    2.263   2.135   1.976   1.976   1.996   2.073   2.136   2.188   2.115   2.159   2.196   2.162   2.163   2.219   2.063   2.147   2.015   1.870   1.994   1.946   2.025   2.333   2.404   2.474   2.487   2.419   2.452   2.637   2.755   2.834   2.864   2.733   2.814   2.756   2.510   2.271   2.478   2.400   2.245   2.241   1.950   2.165   2.101   2.225   2.220   1.969   1.825   1.932   1.983   2.079   2.200   2.121   2.149   2.036   2.116   2.062   2.150   2.099   2.144   2.232   2.029   1.856   1.912   1.874   1.866   1.891   1.828   1.915   1.923   1.960   1.946   1.940   2.087
   176.00    2.128   2.071   1.876   1.948   2.154   2.034   2.077   2.180   2.201   2.262   2.132   2.070   2.092   2.053   1.954   2.092   1.968   1.937   1.980   1.983   2.059   2.125   2.398   2.512   2.634   2.354   2.433   2.552   2.601   2.767   2.528   2.647   2.709   2.658   2.598   2.405   2.424   2.283   2.294   2.211   2.324   2.186   2.302   2.350   2.338   2.028   1.910   1.977   2.158   2.050   2.234   2.093   2.059   2.031   2.008   2.096   2.131   2.075   2.076   2.078   2.056   1.924   2.000   1.858   1.842   1.752   1.725   1.831   1.967   1.934   1.849   2.054   2.014
   171.00    2.180   1.936   2.138   2.028   2.397   2.206   2.155   2.144   2.095   1.933   2.110   2.150   1.980   2.002   2.059   2.024   2.070   1.955   1.803   1.853   2.041   2.105   2.358   2.400   2.557   2.370   2.490   2.515   2.482   2.646   2.721   2.706   2.725   2.525   2.428   2.467   2.467   2.424   2.196   2.184   2.300   2.231   2.343   2.417   2.350   2.114   1.946   2.009   1.993   2.115   2.174   2.025   2.060   2.117   2.227   2.150   2.113   2.028   1.929   1.859   1.799   1.838   1.876   1.887   1.945   1.777   1.772   1.715   1.695   1.879   2.008   1.901   1.853
   166.00    2.239   2.107   1.977   2.184   2.229   2.315   2.262   2.211   2.188   1.975   2.111   2.050   2.119   1.892   1.885   2.014   1.912   1.983   2.004   2.017   2.054   2.227   2.439   2.406   2.496   2.401   2.394   2.351   2.406   2.586   2.718   2.790   2.571   2.523   2.441   2.346   2.462   2.426   2.373   2.229   2.251   2.403   2.369   2.396   2.348   2.250   2.065   1.907   2.042   2.064   2.097   2.023   2.135   2.035   2.124   1.990   1.983   1.929   1.670   1.768   1.793   1.784   1.816   1.662   1.739   1.661   1.875   1.967   1.752   1.841   1.970   1.743   1.745
   161.00    2.204   2.189   2.228   2.137   2.153   2.263   2.324   2.231   2.184   2.026   2.098   2.214   2.159   1.955   1.961   1.994   1.808   1.852   1.860   1.984   2.123   2.198   2.292   2.406   2.383   2.364   2.423   2.300   2.403   2.516   2.636   2.533   2.644   2.535   2.391   2.338   2.451   2.491   2.408   2.368   2.225   2.260   2.337   2.220   2.307   2.347   2.195   2.170   2.254   2.152   2.218   2.118   2.206   2.146   2.114   2.077   1.993   1.931   1.810   1.871   1.981   1.832   1.901   1.783   1.803   1.937   2.025   1.960   1.800   1.911   1.939   1.888   1.827
   156.00    2.045   2.048   2.213   2.154   2.211   2.292   2.341   2.406   2.200   2.117   2.176   2.128   2.049   2.010   2.085   2.066   1.824   1.758   1.942   2.056   2.224   2.105   2.012   2.228   2.514   2.349   2.463   2.326   2.166   2.303   2.316   2.511   2.679   2.523   2.584   2.373   2.518   2.480   2.344   2.438   2.409   2.460   2.509   2.375   2.368   2.454   2.369   2.260   2.321   2.271   2.178   2.232   2.144   2.320   2.146   2.115   2.038   1.977   2.033   1.908   1.844   1.886   1.979   1.859   1.995   2.034   1.884   1.849   1.812   1.916   2.055   1.856   1.986
   151.00    1.906   1.974   2.025   2.229   2.211   2.235   2.322   2.122   2.068   2.054   2.111   2.057   2.058   2.001   2.015   1.958   1.941   1.976   2.096   2.121   2.105   2.041   2.024   2.086   2.379   2.482   2.434   2.311   2.103   2.079   2.356   2.409   2.609   2.604   2.495   2.520   2.365   2.332   2.416   2.578   2.520   2.529   2.500   2.535   2.371   2.387   2.328   2.359   2.306   2.287   2.076   2.107   2.178   2.138   2.110   2.128   2.043   2.112   2.307   2.017   2.055   1.963   1.989   1.964   1.810   1.916   1.928   1.842   1.844   1.819   1.874   1.982   2.010
   146.00    2.084   2.148   2.155   2.207   2.368   2.379   2.419   2.326   2.153   2.037   2.126   2.179   2.125   1.950   1.972   2.052   2.076   2.194   2.179   2.122   1.924   1.757   1.851   2.023   2.267   2.541   2.612   2.290   2.143   2.221   2.245   2.471   2.500   2.461   2.430   2.650   2.478   2.524   2.569   2.500   2.656   2.456   2.490   2.637   2.374   2.444   2.359   2.470   2.233   2.077   2.116   2.159   2.124   2.153   2.171   2.054   2.144   2.157   2.240   2.185   2.216   2.053   1.869   1.921   1.927   1.957   1.970   1.809   1.741   1.795   1.912   1.987   2.220
   141.00    1.903   2.136   2.115   2.254   2.290   2.384   2.367   2.473   2.145   2.151   2.093   1.984   2.124   2.135   2.071   2.156   2.116   2.193   2.240   2.051   2.053   2.023   2.015   2.050   2.132   2.450   2.341   2.341   2.384   2.267   2.308   2.528   2.482   2.487   2.379   2.583   2.565   2.589   2.427   2.502   2.643   2.500   2.540   2.435   2.320   2.269   2.423   2.395   2.267   2.242   2.189   2.041   2.119   2.291   2.098   2.251   2.320   2.310   2.260   2.222   2.214   1.993   1.981   2.007   2.009   1.961   1.873   1.986   2.012   2.208   2.130   1.993   2.325
   136.00    1.931   2.042   2.213   2.214   2.300   2.521   2.486   2.361   2.201   2.172   2.098   2.119   2.158   2.100   2.150   2.078   2.086   2.021   2.084   2.099   2.045   2.151   2.216   2.026   2.196   2.447   2.409   2.342   2.329   2.187   2.324   2.440   2.614   2.389   2.481   2.485   2.460   2.491   2.504   2.487   2.424   2.450   2.390   2.374   2.398   2.488   2.310   2.420   2.336   2.372   2.227   2.200   2.170   2.157   2.405   2.198   2.324   2.404   2.219   2.204   2.222   2.179   2.039   1.926   1.922   2.038   2.085   2.018   2.154   2.168   2.218   2.233   2.339
   131.00    1.994   2.135   2.115   2.310   2.534   2.467   2.494   2.220   2.250   2.268   2.234   2.180   2.247   2.146   2.172   2.005   1.915   2.010   2.082   2.032   2.073   2.203   2.172   2.109   2.247   2.366   2.373   2.270   2.267   2.247   2.348   2.350   2.476   2.507   2.477   2.465   2.496   2.603   2.402   2.388   2.522   2.488   2.257   2.302   2.420   2.342   2.256   2.326   2.244   2.251   2.237   2.171   2.174   2.216   2.321   2.300   2.430   2.389   2.290   2.261   2.256   2.152   1.977   1.989   1.985   2.012   2.068   1.937   2.018   2.143   2.257   2.311   2.346
   126.00    2.140   2.112   2.196   2.264   2.376   2.433   2.594   2.381   2.303   2.130   2.166   2.125   2.217   2.157   2.100   1.978   1.935   1.884   1.895   1.925   1.970   1.954   2.041   2.108   2.231   2.180   2.249   2.069   2.224   2.394   2.320   2.351   2.544   2.625   2.495   2.424   2.459   2.597   2.462   2.512   2.364   2.350   2.386   2.408   2.308   2.325   2.201   2.252   2.185   2.095   2.343   2.296   2.097   2.139   2.299   2.262   2.377   2.454   2.244   2.134   2.118   2.161   2.087   1.956   2.033   2.106   2.009   2.017   1.979   2.133   2.114   2.282   2.239
   121.00    1.957   2.009   2.052   2.276   2.353   2.469   2.497   2.225   2.224   2.197   2.061   2.162   2.156   2.237   2.201   2.231   2.132   2.014   1.923   1.913   1.953   2.003   2.068   2.056   2.191   2.191   2.287   2.197   2.104   2.184   2.394   2.322   2.417   2.544   2.534   2.581   2.356   2.400   2.328   2.359   2.299   2.287   2.147   2.275   2.241   2.121   2.248   2.122   1.942   1.958   2.126   2.189   2.228   2.208   2.303   2.280   2.381   2.264   2.318   2.092   2.048   2.064   2.122   2.184   2.147   2.166   2.042   1.963   2.045   1.903   2.077   2.107   2.203
   116.00    2.109   2.071   2.169   2.250   2.268   2.310   2.193   2.289   2.286   2.030   2.027   2.132   2.054   2.123   2.205   2.234   2.013   2.024   2.044   1.925   2.071   2.035   1.923   1.881   2.005   2.157   2.133   2.041   2.162   2.268   2.339   2.269   2.280   2.482   2.548   2.414   2.291   2.232   2.497   2.348   2.244   2.170   2.164   2.262   2.245   2.348   2.176   2.141   1.741   1.863   2.050   2.264   2.221   2.373   2.346   2.287   2.138   2.318   2.287   2.189   1.935   1.916   2.007   2.076   2.148   2.079   2.203   2.059   2.027   1.869   1.929   2.052   2.209
   111.00    2.066   2.199   2.291   2.206   2.174   2.219   2.340   2.205   2.219   2.103   2.002   1.897   2.049   2.227   2.328   2.388   2.200   2.167   2.189   2.087   2.094   2.080   2.021   1.978   1.916   2.039   2.155   2.097   2.342   2.485   2.237   2.321   2.292   2.475   2.522   2.360   2.290   2.388   2.585   2.304   2.371   2.422   2.314   2.343   2.274   2.225   2.089   1.953   1.768   1.951   2.100   2.271   2.337   2.324   2.355   2.346   2.256   2.240   2.070   2.146   1.945   1.831   1.887   1.957   2.050   2.151   2.186   2.018   1.984   1.989   2.019   2.017   2.262
   106.00    2.104   2.198   2.278   2.270   2.119   2.097   2.162   2.233   2.104   1.912   1.989   2.035   2.186   2.273   2.221   2.382   2.288   2.325   2.360   2.312   2.054   2.153   2.077   2.097   2.071   2.180   2.264   2.173   2.396   2.587   2.180   2.264   2.320   2.371   2.558   2.342   2.405   2.280   2.602   2.471   2.509   2.421   2.377   2.491   2.355   2.138   2.011   2.020   2.041   1.975   2.196   2.232   2.300   2.369   2.434   2.325   2.438   2.249   2.172   2.096   2.117   1.989   1.915   1.928   2.069   1.956   2.082   2.049   2.006   2.135   2.170   2.185   2.328
   101.00    2.085   2.231   2.316   2.396   2.167   2.402   2.199   2.220   2.086   1.990   2.078   2.176   2.205   2.401   2.258   2.291   2.377   2.361   2.347   2.287   2.005   2.212   2.294   2.246   2.283   2.252   2.253   2.164   2.149   2.214   2.299   2.303   2.217   2.319   2.340   2.448   2.540   2.458   2.490   2.578   2.597   2.538   2.430   2.428   2.279   2.160   2.167   2.030   2.006   2.054   2.231   2.085   2.186   2.365   2.352   2.405   2.416   2.377   2.266   2.003   2.099   1.879   1.863   1.779   1.840   1.992   2.094   2.107   2.103   2.133   2.079   2.258   2.526
    96.00    2.078   2.071   2.150   2.217   2.406   2.274   2.249   2.093   2.205   2.095   2.082   2.117   2.361   2.342   2.345   2.367   2.385   2.420   2.340   2.230   2.090   2.199   2.162   2.191   2.374   2.313   2.194   2.117   2.048   2.089   2.080   2.235   2.317   2.402   2.317   2.355   2.306   2.345   2.452   2.624   2.590   2.456   2.412   2.334   2.339   2.356   2.271   2.189   2.039   2.075   2.250   2.158   2.108   2.195   2.121   2.197   2.133   2.130   2.149   2.098   2.032   1.920   1.890   1.903   1.782   2.005   2.053   2.144   2.049   2.048   2.083   2.159   2.381
    91.00    1.908   1.979   2.057   2.135   2.202   2.295   2.264   2.352   2.323   2.082   2.089   2.162   2.400   2.378   2.235   2.426   2.384   2.378   2.385   2.276   2.040   2.114   2.174   2.348   2.283   2.377   2.263   2.036   2.055   2.242   2.115   2.168   2.289   2.494   2.630   2.392   2.247   2.249   2.434   2.315   2.427   2.271   2.450   2.194   2.246   2.261   2.190   1.981   2.030   1.974   2.117   2.175   2.088   2.136   2.224   2.299   2.202   2.121   2.044   2.054   1.996   1.924   1.968   1.848   1.701   1.921   2.023   2.151   2.225   2.058   2.126   2.088   2.219
    86.00    1.910   1.911   2.010   2.081   2.158   2.253   2.314   2.216   2.279   2.156   2.118   2.175   2.383   2.301   2.278   2.309   2.355   2.287   2.343   2.343   2.003   2.059   2.165   2.371   2.219   2.233   2.181   2.135   2.137   2.283   2.336   2.306   2.381   2.343   2.397   2.427   2.283   2.355   2.478   2.370   2.161   2.167   2.194   2.161   2.145   2.171   2.127   1.987   1.959   1.931   2.084   2.005   2.051   2.124   2.281   2.218   2.347   2.212   2.085   1.912   2.054   1.945   1.944   1.751   1.759   1.906   2.012   2.119   2.269   2.146   2.031   1.987   1.992
    81.00    1.937   2.017   2.010   2.161   2.100   2.275   2.187   2.175   1.947   2.078   2.139   2.227   2.370   2.267   2.154   2.365   2.250   2.327   2.348   2.218   2.202   2.192   2.217   2.147   2.253   2.125   2.069   2.045   2.056   2.106   2.325   2.405   2.462   2.464   2.487   2.344   2.291   2.246   2.427   2.439   2.223   2.195   2.266   2.195   2.273   2.160   2.098   2.022   1.980   2.066   1.977   1.957   2.092   2.104   2.301   2.112   2.057   2.052   1.995   2.022   1.982   2.032   1.931   1.980   1.851   1.862   2.059   2.242   2.180   2.182   2.104   2.168   2.241
    76.00    1.980   1.934   1.971   2.114   2.226   2.071   2.100   1.987   2.108   2.134   2.081   2.140   2.343   2.420   2.261   2.326   2.399   2.337   2.284   2.436   2.326   2.355   2.229   2.131   2.201   2.168   2.216   2.123   2.119   2.243   2.423   2.410   2.466   2.528   2.565   2.350   2.245   2.453   2.432   2.243   2.077   2.092   2.163   2.292   2.227   2.223   2.145   2.091   2.115   2.008   2.043   1.998   2.187   2.219   2.300   2.154   2.030   2.032   2.002   1.850   1.895   1.925   1.966   1.866   1.826   1.894   2.039   2.234   2.184   2.115   2.204   2.114   2.215
    71.00    1.958   2.045   1.959   1.980   2.108   2.251   2.182   2.082   2.231   2.120   2.244   2.321   2.216   2.332   2.382   2.277   2.339   2.335   2.284   2.374   2.343   2.287   2.207   2.292   2.274   2.204   2.162   2.122   2.249   2.448   2.612   2.564   2.376   2.389   2.636   2.493   2.289   2.478   2.404   2.300   2.017   2.013   2.131   2.278   2.100   2.204   2.116   2.015   2.169   1.938   1.999   2.189   2.179   2.067   2.114   1.995   1.953   1.941   1.903   1.967   2.057   2.116   1.920   1.917   1.974   2.023   2.075   2.188   2.231   2.320   2.324   2.419   2.287
    66.00    2.007   1.978   1.923   2.087   2.133   2.215   2.130   2.213   2.215   2.153   2.262   2.329   2.242   2.287   2.345   2.399   2.400   2.237   2.199   2.114   2.285   2.179   2.214   2.188   2.199   2.047   2.187   2.115   2.200   2.437   2.504   2.547   2.605   2.393   2.453   2.365   2.446   2.449   2.432   2.359   2.115   2.081   2.185   2.243   2.221   2.173   2.009   2.068   2.163   2.075   2.079   2.079   2.168   2.141   1.998   1.859   1.838   1.817   1.931   1.830   2.063   1.981   1.924   1.889   1.899   2.091   2.279   2.228   2.293   2.250   2.320   2.538   2.381
    61.00    1.963   1.965   2.121   2.190   2.247   2.227   2.165   2.070   2.167   2.399   2.446   2.412   2.156   2.150   2.271   2.309   2.300   2.161   2.255   2.274   2.361   2.238   2.243   2.087   2.157   2.042   2.044   1.984   2.202   2.247   2.310   2.503   2.503   2.417   2.459   2.417   2.387   2.255   2.210   2.229   2.161   2.220   2.255   2.466   2.388   2.213   2.069   2.151   2.001   1.911   1.995   2.058   2.134   2.120   1.971   1.827   1.814   1.907   1.812   1.924   2.014   1.917   1.899   1.894   2.039   2.147   2.329   2.326   2.434   2.486   2.448   2.424   2.208
    56.00    1.842   2.014   2.003   2.058   2.146   2.088   2.161   2.123   2.216   2.253   2.487   2.353   2.210   2.232   2.289   2.389   2.241   2.219   2.239   2.205   2.261   2.224   2.162   2.206   2.223   1.999   2.079   2.081   2.022   2.217   2.107   2.335   2.311   2.245   2.280   2.415   2.455   2.438   2.445   2.392   2.202   2.156   2.292   2.374   2.380   2.425   2.412   2.068   2.069   2.003   2.028   2.096   2.029   2.168   1.951   2.032   2.028   1.804   1.859   1.715   1.841   1.958   1.946   2.036   2.129   2.081   2.166   2.380   2.486   2.626   2.652   2.292   2.342
    51.00    2.096   1.953   1.999   2.140   2.184   1.989   2.136   2.099   2.258   2.302   2.250   2.417   2.164   2.210   2.172   2.284   2.154   2.148   2.307   2.377   2.249   2.278   2.255   2.256   2.125   1.955   1.966   1.998   1.996   2.015   2.085   2.144   2.188   2.196   2.299   2.344   2.505   2.351   2.297   2.579   2.460   2.280   2.355   2.259   2.223   2.271   2.258   2.140   2.109   2.161   2.142   2.144   2.231   2.138   1.906   2.062   1.963   1.899   1.989   2.023   1.932   1.971   1.904   1.969   2.254   2.168   2.226   2.306   2.433   2.449   2.273   2.374   2.227
    46.00    2.281   2.131   2.071   2.060   2.145   2.058   2.020   2.217   2.311   2.449   2.381   2.369   2.401   2.232   2.324   2.289   2.275   2.323   2.278   2.402   2.444   2.415   2.251   2.011   2.086   2.030   1.955   2.024   2.026   1.967   2.003   2.133   2.100   2.118   2.250   2.201   2.291   2.223   2.412   2.500   2.283   2.239   2.232   2.216   2.344   2.204   2.238   2.373   2.263   2.147   2.066   2.105   2.092   2.205   2.064   2.026   2.056   2.064   2.042   2.024   2.024   1.913   1.847   1.881   2.055   2.101   2.299   2.337   2.350   2.355   2.294   2.241   2.199
    41.00    2.297   2.295   2.157   2.161   2.201   2.215   2.101   2.069   2.201   2.407   2.243   2.398   2.349   2.272   2.289   2.322   2.398   2.363   2.436   2.330   2.412   2.426   2.181   2.062   2.077   1.985   1.877   1.917   1.952   1.951   2.224   2.238   2.335   2.300   2.388   2.300   2.140   2.198   2.358   2.384   2.365   2.260   2.275   2.330   2.237   2.200   2.367   2.551   2.249   2.120   2.029   2.150   2.120   2.247   2.185   2.286   2.242   2.174   2.225   2.066   2.170   2.081   2.038   2.084   2.152   2.334   2.485   2.478   2.332   2.291   2.360   2.066   2.034
    36.00    2.326   2.206   2.258   2.455   2.260   2.228   2.267   2.188   2.181   2.251   2.347   2.445   2.499   2.325   2.328   2.512   2.428   2.341   2.318   2.246   2.450   2.428   2.292   2.232   1.982   2.026   1.946   1.845   1.944   2.136   2.255   2.338   2.438   2.481   2.549   2.316   2.208   2.139   2.332   2.393   2.250   2.294   2.372   2.484   2.278   2.271   2.404   2.492   2.360   2.029   2.009   1.997   2.088   2.221   2.356   2.320   2.330   2.289   2.255   2.231   2.280   2.256   2.147   2.177   2.318   2.398   2.493   2.371   2.405   2.509   2.256   2.169   2.184
    31.00    2.148   2.232   2.219   2.236   2.269   2.265   2.337   2.301   2.258   2.172   2.294   2.601   2.648   2.472   2.498   2.517   2.408   2.478   2.265   2.320   2.303   2.287   2.189   2.158   2.089   1.999   1.919   1.942   1.948   2.084   2.307   2.615   2.718   2.610   2.535   2.380   2.317   2.441   2.509   2.529   2.401   2.354   2.514   2.618   2.403   2.448   2.395   2.409   2.131   2.140   2.150   2.097   1.952   2.216   2.344   2.303   2.368   2.330   2.367   2.323   2.295   2.382   2.303   2.357   2.316   2.507   2.439   2.451   2.396   2.466   2.244   2.178   2.139
    26.00    2.315   2.163   2.281   2.226   2.202   2.292   2.240   2.400   2.333   2.283   2.411   2.630   2.701   2.597   2.457   2.420   2.298   2.354   2.255   2.290   2.216   2.255   2.232   2.256   2.230   2.192   2.057   2.117   2.296   2.405   2.193   2.469   2.784   2.472   2.700   2.614   2.465   2.391   2.496   2.515   2.497   2.376   2.546   2.575   2.568   2.592   2.524   2.449   2.261   2.134   2.093   2.021   2.137   2.299   2.310   2.412   2.308   2.309   2.456   2.366   2.379   2.252   2.362   2.529   2.387   2.344   2.472   2.369   2.337   2.401   2.266   2.286   2.256
    21.00    2.355   2.244   2.269   2.426   2.385   2.205   2.213   2.247   2.345   2.379   2.444   2.505   2.634   2.740   2.602   2.482   2.280   2.313   2.249   2.266   2.165   2.223   2.239   2.307   2.297   2.145   2.114   2.448   2.431   2.394   2.297   2.355   2.613   2.604   2.587   2.567   2.378   2.450   2.495   2.641   2.377   2.461   2.563   2.551   2.560   2.442   2.196   2.212   2.256   2.251   2.305   2.186   2.204   2.342   2.409   2.489   2.473   2.367   2.363   2.239   2.397   2.349   2.354   2.470   2.486   2.340   2.369   2.337   2.364   2.359   2.164   2.162   2.302
    16.00    2.139   2.074   2.293   2.333   2.481   2.302   2.217   2.204   2.309   2.322   2.393   2.470   2.419   2.568   2.505   2.380   2.376   2.214   2.286   2.300   2.373   2.435   2.421   2.372   2.371   2.355   2.274   2.473   2.440   2.500   2.210   2.326   2.379   2.566   2.385   2.450   2.481   2.781   2.646   2.587   2.642   2.666   2.560   2.445   2.403   2.162   2.243   2.243   2.247   2.313   2.344   2.349   2.370   2.465   2.410   2.529   2.544   2.412   2.390   2.495   2.286   2.390   2.434   2.367   2.363   2.370   2.287   2.408   2.410   2.344   2.164   2.016   2.285
    11.00    2.287   2.341   2.368   2.423   2.475   2.385   2.134   2.152   2.324   2.475   2.589   2.554   2.511   2.356   2.430   2.369   2.336   2.348   2.276   2.245   2.329   2.391   2.492   2.416   2.400   2.393   2.547   2.356   2.590   2.469   2.216   2.356   2.376   2.489   2.439   2.400   2.694   2.827   2.736   2.660   2.573   2.766   2.660   2.496   2.406   2.280   2.245   2.252   2.276   2.236   2.538   2.524   2.481   2.477   2.501   2.514   2.452   2.497   2.421   2.358   2.322   2.333   2.435   2.397   2.296   2.353   2.299   2.235   2.215   2.217   2.184   2.148   2.239
     6.00    2.359   2.278   2.486   2.498   2.436   2.388   2.273   2.280   2.337   2.507   2.467   2.384   2.393   2.337   2.251   2.361   2.327   2.225   2.249   2.122   2.181   2.108   2.264   2.250   2.412   2.394   2.443   2.410   2.423   2.478   2.356   2.321   2.403   2.476   2.377   2.356   2.550   2.695   2.731   2.815   2.632   2.543   2.651   2.615   2.504   2.496   2.451   2.617   2.492   2.430   2.542   2.681   2.579   2.538   2.608   2.533   2.542   2.504   2.469   2.311   2.380   2.329   2.531   2.514   2.363   2.297   2.180   2.020   2.269   2.340   2.207   2.096   2.166
     1.00    2.269   2.331   2.374   2.527   2.335   2.370   2.302   2.259   2.417   2.444   2.356   2.398   2.392   2.354   2.164   2.220   2.143   2.146   2.230   2.257   2.140   2.086   2.273   2.368   2.464   2.307   2.289   2.409   2.329   2.349   2.355   2.297   2.351   2.514   2.283   2.328   2.445   2.591   2.720   2.703   2.807   2.637   2.660   2.651   2.532   2.681   2.702   2.693   2.675   2.572   2.475   2.626   2.790   2.934   2.783   2.824   2.612   2.449   2.336   2.510   2.228   2.379   2.333   2.333   2.505   2.247   2.357   2.300   2.302   2.307   2.452   2.281   2.174

   Height   Standard deviation at grid points for the v component:
   301.00    1.910   1.925   1.838   1.902   1.902   1.961   1.932   1.831   1.826   1.844   1.826   1.872   1.907   1.987   1.979   1.782   1.890   1.879   1.692   1.638   1.717   1.745   1.616   1.717   1.813   1.768   1.787   1.880   1.835   1.840   1.750   1.835   1.807   1.708   1.744   1.732   1.811   1.724   1.663   1.809   1.951   1.985   1.969   1.930   1.841   1.889   1.876   1.859   1.862   1.776   1.695   1.790   1.933   2.001   2.067   2.126   2.161   2.064   1.986   1.939   1.886   1.896   1.741   1.823   1.792   1.716   1.755   1.795   1.725   1.703   1.598   1.790   1.830
   296.00    1.866   1.914   1.796   1.957   1.898   1.930   1.842   1.836   1.689   1.810   1.780   1.899   1.999   1.935   1.871   1.834   1.897   1.837   1.738   1.649   1.708   1.797   1.810   1.761   1.830   1.737   1.751   1.867   1.893   1.837   1.856   1.897   1.741   1.733   1.746   1.784   1.683   1.693   1.662   1.878   1.916   1.947   1.972   1.998   2.010   1.993   2.100   2.064   1.917   1.813   1.815   1.817   1.892   2.015   2.104   2.126   2.156   2.045   1.956   1.865   1.907   1.818   1.825   1.755   1.782   1.751   1.771   1.661   1.767   1.713   1.693   1.783   1.886
   291.00    1.851   1.846   1.824   1.814   1.835   1.829   1.680   1.716   1.689   1.716   1.828   1.991   1.881   1.797   1.867   1.832   1.898   1.901   1.833   1.793   1.931   1.979   1.848   1.764   1.763   1.809   1.795   1.917   1.904   1.909   1.972   1.878   1.748   1.755   1.817   1.784   1.668   1.630   1.663   1.733   1.909   1.918   1.864   1.859   1.905   2.051   2.126   1.950   2.004   1.903   1.924   1.995   1.937   2.070   2.059   2.080   2.063   1.983   1.799   1.850   1.898   1.806   1.785   1.763   1.763   1.749   1.703   1.680   1.750   1.804   1.764   1.789   1.908
   286.00    1.836   1.802   1.744   1.850   1.918   1.857   1.628   1.595   1.664   1.779   1.801   1.868   1.839   1.868   1.851   1.775   1.970   1.904   1.863   1.889   1.963   1.959   1.915   1.835   1.819   1.841   1.854   1.818   1.992   1.905   1.876   1.844   1.779   1.873   1.865   1.848   1.825   1.786   1.740   1.782   1.899   1.845   1.861   1.763   1.935   2.055   2.064   1.829   1.873   2.003   2.012   2.051   1.974   2.099   2.135   2.023   2.045   1.877   1.846   1.910   1.781   1.783   1.827   1.711   1.658   1.714   1.737   1.759   1.785   1.848   1.863   1.838   1.896
   281.00    1.919   1.874   1.835   1.846   1.894   1.744   1.628   1.702   1.674   1.762   1.884   1.947   1.845   1.801   1.755   1.717   1.794   1.851   1.891   1.920   1.845   1.845   1.862   1.807   1.912   1.873   1.761   1.901   1.921   1.973   1.937   1.865   1.911   1.960   1.937   1.965   1.862   1.820   1.793   1.745   1.844   1.810   1.842   1.926   1.927   1.995   1.959   1.890   1.848   1.921   1.986   1.946   2.034   2.055   2.009   2.080   2.031   1.823   1.889   1.799   1.769   1.840   1.820   1.731   1.665   1.758   1.849   1.751   1.891   1.839   1.903   1.969   1.954
   276.00    1.914   1.820   1.762   1.807   1.731   1.719   1.609   1.705   1.712   1.774   1.813   1.886   1.874   1.810   1.864   1.810   1.734   1.722   1.705   1.834   1.765   1.860   1.834   1.829   1.897   1.858   1.904   1.848   2.008   1.993   1.942   1.926   1.970   1.982   1.964   1.985   1.978   1.994   1.835   1.806   1.813   1.833   1.873   1.955   1.967   1.945   1.963   1.879   1.965   1.928   1.973   2.014   2.135   2.047   1.954   1.860   1.952   1.864   1.832   1.762   1.674   1.912   1.906   1.862   1.749   1.845   1.924   1.885   1.827   1.806   1.804   1.969   1.992
   271.00    1.885   1.746   1.780   1.799   1.714   1.654   1.697   1.627   1.734   1.710   1.847   1.867   1.855   1.776   1.670   1.646   1.662   1.710   1.740   1.744   1.710   1.763   1.782   1.878   1.966   1.885   1.863   1.998   1.956   2.045   2.050   2.066   2.106   2.038   2.003   1.944   1.971   1.963   1.924   1.905   1.893   2.005   2.055   2.029   1.965   1.977   1.980   1.988   1.793   1.882   1.865   1.964   1.950   1.953   1.828   1.813   1.822   1.789   1.786   1.851   1.890   1.914   1.946   1.816   1.742   1.853   1.964   1.955   1.840   1.819   1.850   1.860   1.925
   266.00    1.864   1.853   1.823   1.712   1.652   1.679   1.799   1.741   1.723   1.780   1.706   1.796   1.803   1.658   1.686   1.601   1.630   1.659   1.646   1.689   1.818   1.798   1.733   1.907   2.044   2.026   1.879   1.930   1.996   1.952   1.956   1.993   2.079   2.219   2.130   1.982   2.000   1.910   1.900   1.944   2.017   1.974   1.942   1.911   1.899   1.827   1.929   1.979   1.954   1.854   1.916   1.926   1.915   1.854   1.839   1.787   1.789   1.788   1.829   1.815   1.932   2.010   1.968   1.939   1.839   1.802   1.958   1.985   1.988   1.857   1.833   1.873   1.880
   261.00    1.822   1.863   1.752   1.740   1.672   1.693   1.664   1.694   1.755   1.692   1.649   1.742   1.733   1.705   1.598   1.728   1.811   1.639   1.644   1.724   1.816   1.812   1.798   1.865   2.005   1.920   1.907   1.941   2.030   1.946   1.925   1.983   2.145   2.172   2.192   1.940   2.002   1.860   1.963   2.022   2.006   2.006   1.951   1.869   1.926   1.929   1.985   1.907   1.924   1.883   1.895   1.969   1.972   1.891   1.828   1.796   1.764   1.855   1.834   1.864   1.989   1.969   2.048   1.996   1.873   1.874   1.934   2.006   1.994   1.912   1.764   1.905   1.858
   256.00    1.950   1.846   1.729   1.695   1.655   1.726   1.702   1.596   1.657   1.657   1.815   1.809   1.808   1.695   1.650   1.736   1.914   1.813   1.784   1.768   1.817   1.961   1.942   1.943   2.037   1.906   1.994   2.025   1.990   2.096   2.127   2.160   2.103   2.117   2.230   2.068   2.101   2.059   1.987   2.060   2.066   2.027   1.872   1.827   1.797   1.974   2.030   1.906   1.863   1.997   1.942   1.921   1.917   1.850   1.935   1.801   1.765   1.784   1.978   1.925   2.041   2.012   1.984   1.922   1.823   1.919   2.024   1.916   1.977   1.825   1.860   1.813   1.916
   251.00    1.955   1.879   1.777   1.838   1.831   1.695   1.750   1.726   1.698   1.731   1.779   1.862   1.834   1.755   1.762   1.792   1.915   1.837   1.846   1.866   1.863   1.955   1.978   2.027   2.022   2.137   2.034   2.116   2.015   2.049   2.053   2.145   2.065   2.101   2.183   2.188   2.139   1.998   1.977   2.027   2.004   1.962   1.970   1.883   1.835   1.948   2.009   2.125   1.993   1.992   2.066   2.135   2.110   1.984   1.942   1.972   1.920   1.899   1.895   2.015   1.951   2.035   1.935   1.850   1.886   1.955   1.959   1.994   1.998   1.886   1.924   1.757   1.883
   246.00    1.826   1.895   1.851   1.925   1.845   1.896   1.791   1.738   1.729   1.769   1.812   1.886   1.869   1.748   1.876   1.840   1.927   1.866   1.887   1.893   1.961   1.976   1.926   2.091   1.988   2.025   2.027   2.054   2.061   2.127   2.110   2.086   2.119   2.079   2.159   2.125   2.091   2.124   1.977   2.020   1.983   1.924   1.953   1.886   1.930   1.981   1.940   2.036   1.983   2.059   2.130   2.111   2.065   1.971   2.053   2.014   1.998   1.923   1.924   1.948   1.944   2.038   1.912   1.913   1.821   1.861   2.025   1.933   1.959   1.921   1.955   1.856   1.934
   241.00    1.883   1.868   1.916   1.923   1.851   1.841   1.819   1.770   1.952   1.968   1.940   1.856   1.926   1.804   1.829   1.881   1.982   1.894   1.925   1.971   1.915   1.918   1.977   2.004   2.009   1.983   2.055   2.053   2.064   2.015   2.044   2.155   2.247   2.170   2.149   2.108   2.198   1.986   2.025   2.082   2.007   1.937   2.110   1.955   1.916   1.886   1.932   1.977   2.070   2.078   2.167   2.042   2.059   1.964   1.993   1.974   1.980   1.928   1.908   1.945   2.008   2.040   1.990   1.926   1.942   1.979   2.121   2.127   1.939   1.882   1.917   1.931   1.939
   236.00    1.816   1.932   2.010   2.070   1.996   1.936   1.888   1.864   1.935   1.943   1.874   1.831   1.872   1.861   1.915   1.889   1.818   1.954   1.986   2.025   2.017   1.939   1.807   1.860   1.846   1.894   1.983   2.050   2.076   2.183   2.117   2.108   2.136   2.000   2.145   2.017   2.086   2.022   1.963   1.982   1.972   2.006   1.932   1.949   1.825   1.937   1.927   1.926   1.984   2.013   2.163   2.018   2.034   2.076   2.019   1.943   1.924   1.938   1.853   1.990   1.970   1.948   1.981   1.983   1.943   1.938   2.016   2.070   1.963   1.933   1.877   1.940   1.936
   231.00    1.861   1.977   2.043   2.054   2.057   1.989   2.003   1.897   2.027   1.856   1.918   1.954   1.994   1.881   1.883   1.978   1.909   2.040   2.094   2.041   2.027   1.882   1.863   1.814   1.814   1.783   1.921   1.996   1.988   1.981   2.041   2.123   2.089   2.137   2.076   2.062   2.068   2.004   2.054   1.933   1.947   1.991   1.911   1.913   1.927   1.984   1.931   2.019   2.079   2.104   2.041   2.024   2.008   1.971   1.991   1.961   2.026   1.957   1.870   1.913   1.836   1.851   1.999   2.028   2.037   1.959   2.009   1.962   1.967   1.902   1.882   1.909   1.840
   226.00    1.951   2.002   2.004   2.112   2.109   2.074   2.168   2.080   1.982   1.922   1.913   1.926   1.907   1.913   1.818   1.939   1.933   1.944   1.957   2.021   2.028   1.989   1.942   1.877   1.812   1.810   1.859   1.876   1.923   1.885   1.933   1.974   2.074   2.022   2.012   1.934   1.933   1.901   1.903   1.907   1.918   1.783   1.740   1.963   1.984   2.080   2.091   2.074   1.960   2.067   2.057   2.052   1.951   2.100   1.996   2.114   1.980   1.967   1.988   1.872   1.837   1.986   2.026   1.990   2.116   1.933   1.887   1.955   1.937   1.928   1.961   1.910   1.916
   221.00    1.966   1.900   2.003   2.149   2.165   2.140   2.123   2.160   1.898   1.891   1.818   1.829   1.843   1.807   1.854   1.915   1.943   1.967   1.865   1.944   1.969   2.046   1.991   1.802   1.768   1.730   1.788   1.843   1.836   1.787   1.901   1.907   1.986   2.068   1.969   1.947   1.881   1.890   1.931   1.803   1.835   1.855   1.765   1.816   1.997   1.995   2.003   2.006   1.963   2.130   2.231   2.211   2.054   2.068   2.071   2.110   1.981   1.980   1.943   1.875   1.839   1.958   2.033   1.952   2.092   2.045   2.048   2.002   1.972   1.959   1.974   1.909   1.902
   216.00    1.900   1.955   2.050   2.145   2.169   2.108   2.117   2.113   1.906   1.734   1.786   1.839   1.816   1.796   1.727   1.842   1.989   1.951   1.937   1.919   1.974   1.891   1.855   1.677   1.741   1.748   1.752   1.864   1.849   1.837   1.903   1.959   2.057   2.067   1.995   1.967   1.879   1.922   1.846   1.876   1.924   1.830   1.774   1.873   2.001   1.989   2.045   1.934   2.029   2.142   2.229   2.137   2.129   2.109   2.159   2.077   2.002   1.932   1.941   1.868   1.830   1.963   2.013   1.958   2.029   2.112   2.079   2.051   2.026   2.045   1.965   2.037   1.925
   211.00    1.787   1.954   2.104   2.061   2.109   2.043   2.004   2.069   1.910   1.772   1.797   1.896   1.901   1.874   1.910   1.921   2.075   2.064   1.971   1.862   1.847   1.925   1.800   1.758   1.748   1.731   1.760   1.801   1.920   1.916   1.884   1.959   2.100   2.102   2.068   2.089   2.044   1.943   1.894   1.821   1.926   1.827   1.812   1.808   2.006   2.110   2.174   2.173   2.107   2.194   2.172   2.188   2.156   2.140   2.182   2.082   2.091   2.004   1.993   1.864   1.822   1.880   1.922   1.954   2.045   1.980   2.080   2.002   1.959   1.969   1.846   1.858   1.961
   206.00    1.833   1.970   1.924   2.045   2.133   2.007   2.017   1.997   1.840   1.723   1.814   1.927   1.902   1.898   1.887   1.963   2.033   2.074   1.986   2.058   2.021   1.878   1.886   1.801   1.681   1.754   1.796   1.813   1.939   1.987   1.995   1.927   2.027   2.192   2.228   2.162   2.092   2.013   1.861   1.950   1.933   1.990   1.988   1.959   1.947   2.111   2.188   2.151   2.076   2.168   2.180   2.152   2.141   1.943   1.961   1.951   1.926   1.998   1.914   1.849   1.764   1.910   1.921   1.957   1.954   2.064   2.049   2.006   1.894   1.870   1.857   1.976   1.853
   201.00    1.850   1.840   1.912   2.017   2.062   1.963   1.924   1.954   1.811   1.733   1.967   1.939   1.952   1.936   1.926   1.938   2.113   2.315   2.086   2.134   2.179   2.073   1.803   1.726   1.731   1.747   1.766   1.856   1.884   1.928   1.938   1.899   2.010   2.104   2.247   2.242   2.273   2.205   2.026   1.977   1.987   2.056   2.028   2.006   1.937   2.031   2.110   2.261   2.078   2.080   2.023   2.165   2.042   2.058   1.913   1.904   1.984   1.990   1.957   1.907   1.938   2.003   2.042   2.011   1.924   1.979   1.981   1.985   1.920   1.922   1.998   2.019   1.920
   196.00    1.911   1.842   1.780   1.892   1.967   2.001   2.080   1.888   1.930   1.776   1.892   1.987   2.013   1.880   1.951   2.044   2.132   2.195   2.120   2.090   2.020   2.014   1.862   1.808   1.745   1.751   1.800   1.857   1.859   1.854   1.912   1.946   1.907   2.083   2.174   2.165   2.212   2.188   2.095   1.942   2.072   2.105   2.124   2.032   1.990   1.961   2.085   2.125   2.077   2.075   2.003   2.152   2.124   2.068   2.000   2.080   2.115   2.109   2.021   2.017   2.011   2.012   2.003   1.919   1.878   1.926   2.006   2.048   1.955   2.019   1.931   1.952   1.899
   191.00    1.881   1.777   1.697   1.779   1.911   1.854   1.847   1.840   1.679   1.718   1.820   1.996   1.934   1.850   1.868   1.988   2.091   2.062   2.043   2.002   1.899   1.906   1.946   1.895   1.775   1.822   1.789   1.885   1.881   1.842   1.868   1.865   1.864   2.044   1.972   2.035   2.104   2.090   2.070   2.110   2.071   2.134   2.175   2.059   2.059   1.937   1.948   2.101   2.010   1.969   2.071   2.059   2.132   2.018   2.067   2.079   2.068   2.101   2.090   1.969   2.061   1.957   1.995   1.898   1.866   1.997   2.050   2.001   2.026   1.939   1.990   1.987   1.972
   186.00    1.770   1.749   1.810   1.792   1.815   1.890   1.793   1.755   1.769   1.792   1.839   1.871   1.940   1.841   1.825   1.977   2.047   2.063   2.059   1.982   1.945   1.876   1.830   1.916   1.934   1.868   1.915   1.924   1.898   1.843   1.731   1.804   1.916   2.025   1.948   2.013   2.071   2.038   2.085   2.129   2.217   2.104   2.060   2.034   2.041   2.113   2.058   1.940   2.009   2.046   2.002   2.105   2.098   2.016   2.006   2.076   2.092   2.069   2.116   2.165   2.044   1.947   1.915   1.883   1.904   1.939   2.021   2.021   1.892   1.958   2.010   1.927   1.976
   181.00    1.739   1.767   1.815   1.791   1.793   1.817   1.792   1.793   1.800   1.927   1.979   1.834   1.863   1.931   1.944   2.034   1.979   2.050   2.160   2.059   1.863   1.904   1.857   1.949   1.885   1.835   1.941   1.920   1.921   1.858   1.847   1.830   1.906   1.965   2.051   2.058   2.097   1.947   2.009   2.091   2.147   2.042   2.027   1.980   2.041   2.138   2.122   2.182   2.061   2.005   2.032   2.049   2.120   2.044   2.029   1.963   2.064   2.044   2.074   2.091   1.959   1.948   1.931   1.889   1.822   1.945   2.055   2.065   1.953   1.999   1.916   1.920   2.026
   176.00    1.845   1.884   1.872   1.752   1.724   1.758   1.851   1.852   1.950   1.926   1.984   1.942   1.854   1.848   1.955   1.912   1.947   2.019   2.107   1.958   1.923   1.811   1.935   1.812   1.881   1.829   1.829   1.859   1.852   1.813   1.841   1.738   1.860   1.992   2.006   2.112   2.097   2.026   2.063   2.074   2.219   2.076   2.024   2.051   2.043   2.056   2.087   2.153   2.020   2.069   2.104   2.154   2.170   1.994   1.990   1.992   2.058   2.015   2.124   2.126   2.023   2.013   1.895   1.972   1.926   1.930   1.973   1.991   2.030   1.947   1.867   1.944   1.939
   171.00    1.949   1.907   1.850   1.733   1.680   1.722   1.869   2.045   2.001   1.999   2.027   2.044   1.938   1.864   1.898   1.914   1.932   2.009   2.033   2.058   1.940   1.867   1.834   1.826   1.750   1.739   1.760   1.877   1.898   1.857   1.828   1.713   1.755   1.842   1.945   1.933   2.084   1.975   2.054   2.175   2.217   2.165   1.988   1.813   1.879   1.957   2.041   2.090   1.979   2.033   2.158   2.157   2.076   1.909   1.872   1.971   1.996   2.007   2.122   1.977   2.039   1.922   1.925   1.934   1.869   1.826   1.906   2.003   2.029   1.991   1.892   1.952   2.028
   166.00    1.828   1.806   1.726   1.681   1.671   1.735   1.898   2.016   2.053   2.052   2.055   2.056   1.960   1.952   1.943   1.936   1.977   1.981   2.092   2.107   1.997   1.882   1.898   1.925   1.759   1.752   1.823   1.783   1.880   1.764   1.697   1.672   1.764   1.875   1.972   1.958   2.041   2.007   2.091   2.107   2.108   2.086   1.959   1.811   1.836   1.950   1.975   1.974   2.015   2.094   2.129   2.041   2.051   1.981   1.927   1.849   1.922   2.027   2.017   2.030   1.899   1.932   1.999   2.068   1.916   1.916   2.033   1.919   1.942   1.991   1.977   2.014   2.107
   161.00    1.796   1.716   1.723   1.654   1.802   1.829   1.948   1.971   1.956   2.048   2.020   1.906   1.882   1.826   1.942   1.946   1.999   2.070   2.033   2.029   2.011   1.949   2.034   2.022   1.835   1.775   1.761   1.760   1.834   1.856   1.699   1.647   1.740   1.888   1.979   1.969   1.991   2.040   2.024   2.178   2.106   2.015   2.025   1.895   1.999   2.041   2.062   1.980   2.079   1.948   1.965   2.014   1.970   2.006   1.822   1.846   1.785   1.919   2.032   1.989   1.979   1.915   1.917   2.029   2.023   1.987   2.021   2.037   1.938   2.032   2.080   2.171   2.219
   156.00    1.795   1.692   1.666   1.687   1.893   1.977   1.912   2.061   2.013   2.142   2.017   1.786   1.856   1.777   1.834   1.918   1.961   1.918   2.014   2.105   2.146   2.036   2.021   2.040   1.890   1.735   1.633   1.732   1.834   1.840   1.801   1.717   1.708   1.836   1.978   1.999   2.029   2.110   2.089   2.032   2.070   2.105   2.016   1.872   1.924   1.874   1.906   1.915   1.939   1.940   1.958   2.038   1.978   1.947   1.980   1.850   1.815   1.862   1.839   1.891   1.892   1.799   1.850   1.989   2.011   1.995   1.975   2.028   2.042   2.084   2.108   2.177   2.135
   151.00    1.825   1.795   1.769   1.804   1.914   1.970   1.916   2.088   2.172   2.201   2.127   1.878   1.742   1.788   1.935   1.958   1.922   1.938   2.036   2.008   1.982   1.947   2.012   2.029   1.946   1.679   1.747   1.755   1.875   1.905   1.833   1.835   1.713   1.842   1.932   1.983   2.012   2.166   2.091   2.042   1.999   2.122   2.006   1.943   1.864   1.763   1.712   1.764   1.880   1.837   1.917   1.948   1.870   1.929   1.850   1.852   1.908   1.841   1.871   1.809   1.854   1.850   1.888   1.959   2.080   1.986   2.013   1.990   2.016   2.020   2.057   2.082   2.042
   146.00    1.789   1.897   1.876   1.928   2.004   1.992   2.028   2.059   2.177   2.218   2.096   1.884   1.862   1.917   1.987   2.006   2.011   1.907   2.038   1.902   1.911   1.897   1.856   1.824   1.822   1.784   1.801   1.836   1.818   1.832   1.920   1.913   1.856   1.845   1.916   1.921   1.898   1.955   2.041   2.011   2.045   2.037   1.978   1.955   1.757   1.792   1.769   1.713   1.779   1.795   1.863   1.769   1.898   1.881   1.919   1.963   1.830   1.904   1.860   1.922   1.945   1.942   1.929   1.953   2.012   1.979   2.029   2.092   2.077   2.047   2.131   1.998   2.171
   141.00    1.694   1.852   1.972   1.871   1.965   1.943   1.976   2.052   2.119   2.152   2.063   1.992   1.934   1.946   1.974   2.001   2.054   1.979   1.933   1.950   1.849   1.956   1.875   1.793   1.804   1.771   1.712   1.692   1.712   1.795   1.997   1.906   1.939   1.897   1.946   1.856   1.809   1.895   2.024   1.966   1.927   1.994   1.965   1.885   1.766   1.680   1.855   1.813   1.842   1.796   1.768   1.846   1.742   1.929   1.976   1.942   1.874   1.819   1.895   1.914   1.923   1.953   1.898   1.944   1.900   1.994   2.023   1.927   1.971   2.046   2.113   2.009   2.072
   136.00    1.800   1.824   1.818   1.877   1.901   1.946   1.972   2.131   2.054   1.996   1.942   1.940   1.957   2.045   2.093   2.056   2.050   1.988   1.894   1.908   1.972   1.992   1.897   1.869   1.718   1.760   1.727   1.668   1.788   1.848   1.973   1.990   1.865   1.810   1.800   1.757   1.788   1.899   1.926   1.973   1.934   1.921   1.893   1.795   1.651   1.699   1.852   1.837   1.904   1.778   1.694   1.677   1.745   1.843   1.909   1.926   1.816   1.766   1.890   1.756   1.865   1.858   1.904   1.982   1.912   1.923   2.001   1.985   1.919   1.965   1.986   2.073   2.061
   131.00    1.698   1.773   1.785   1.855   1.852   1.920   1.928   2.053   1.976   1.936   1.950   1.955   1.936   1.967   2.144   2.118   2.026   2.051   2.069   2.031   1.977   1.944   1.932   1.779   1.780   1.812   1.777   1.807   1.760   1.816   1.885   1.906   1.865   1.900   1.857   1.751   1.775   1.895   1.955   1.882   1.951   1.942   1.801   1.761   1.719   1.650   1.736   1.845   1.898   1.804   1.745   1.790   1.755   1.849   1.944   1.966   1.904   1.839   1.875   1.931   1.849   1.831   1.793   1.804   1.780   1.820   1.813   1.921   1.857   1.941   1.942   2.035   2.144
   126.00    1.728   1.650   1.678   1.833   1.849   1.908   1.885   1.964   1.961   1.955   2.002   1.991   1.963   1.927   1.988   2.052   1.993   2.106   2.184   2.057   2.120   1.915   2.043   2.049   1.936   1.924   1.826   1.801   1.797   1.897   1.890   1.843   1.922   1.788   1.749   1.766   1.918   1.925   1.979   1.861   1.782   1.792   1.788   1.705   1.589   1.600   1.658   1.779   1.822   1.841   1.707   1.771   1.787   1.820   1.844   1.987   1.946   1.877   1.734   1.822   1.821   1.799   1.744   1.795   1.765   1.720   1.815   1.923   1.915   1.836   2.017   2.110   2.240
   121.00    1.585   1.657   1.714   1.747   1.780   1.862   1.857   1.924   1.933   1.997   2.086   2.030   2.001   1.922   1.950   2.028   2.011   2.033   2.196   2.171   2.050   2.079   2.083   1.965   1.897   1.894   1.890   1.747   1.897   1.834   1.826   1.836   1.832   1.799   1.815   1.912   1.890   1.954   1.945   1.814   1.766   1.751   1.764   1.659   1.636   1.732   1.692   1.832   1.853   1.828   1.852   1.854   1.921   1.933   1.801   1.971   1.897   1.834   1.904   1.906   1.865   1.761   1.699   1.814   1.652   1.793   1.766   1.878   1.960   1.909   1.959   2.025   2.196
   116.00    1.621   1.570   1.667   1.699   1.723   1.783   1.893   1.864   1.836   1.880   1.881   1.986   1.997   2.009   1.954   1.986   1.998   2.152   2.163   2.143   2.039   2.118   2.010   2.046   1.967   1.909   1.889   1.798   1.843   1.836   1.830   1.829   1.872   1.868   1.917   1.941   1.831   1.923   1.814   1.787   1.925   1.820   1.855   1.720   1.714   1.765   1.813   1.835   1.881   1.779   1.842   1.857   1.822   1.918   1.953   1.909   1.840   1.899   1.852   1.925   1.846   1.800   1.687   1.730   1.795   1.813   1.851   1.925   1.907   1.952   1.875   2.029   2.141
   111.00    1.595   1.568   1.600   1.644   1.711   1.764   1.787   1.649   1.726   1.755   1.921   1.984   1.994   1.927   1.943   1.973   2.035   2.117   2.098   2.125   2.075   2.047   2.014   1.993   1.920   1.890   1.985   1.988   1.930   1.861   2.017   1.910   1.846   1.899   1.925   1.913   1.865   1.858   1.854   1.796   1.865   1.880   1.815   1.808   1.767   1.793   1.776   1.913   1.878   1.873   1.806   1.786   1.818   1.923   1.817   1.839   1.907   1.806   1.770   1.834   1.881   1.834   1.809   1.750   1.706   1.846   1.824   1.888   1.884   1.886   1.921   1.992   2.038
   106.00    1.771   1.639   1.565   1.552   1.699   1.795   1.776   1.670   1.805   1.808   1.933   2.133   2.018   2.047   1.997   1.931   2.080   2.115   2.156   2.271   2.155   1.998   2.016   1.922   1.972   1.955   2.014   1.996   1.866   1.966   1.922   1.915   1.914   1.926   1.978   1.961   1.886   1.792   1.831   1.820   1.849   1.846   1.786   1.763   1.832   1.927   1.969   1.911   1.898   1.850   1.848   1.817   1.864   1.867   1.900   1.858   1.800   1.789   1.793   1.858   1.872   1.784   1.832   1.766   1.771   1.761   1.756   1.780   1.779   1.913   1.930   1.997   2.016
   101.00    1.672   1.650   1.592   1.669   1.641   1.650   1.759   1.786   1.845   1.888   1.900   2.059   2.071   1.966   1.988   2.014   2.150   2.168   2.207   2.205   2.232   2.041   1.990   1.886   1.822   1.932   1.958   1.917   1.964   1.954   1.869   1.812   1.826   1.922   1.992   1.942   1.895   1.931   1.893   1.885   1.905   1.826   1.759   1.748   1.958   1.978   2.006   1.972   1.950   1.798   1.764   1.764   1.863   1.830   1.839   1.841   1.812   1.739   1.803   1.738   1.745   1.790   1.749   1.735   1.820   1.747   1.845   1.821   1.864   1.871   1.879   2.033   1.960
    96.00    1.611   1.626   1.591   1.590   1.631   1.669   1.750   1.839   1.882   1.910   1.933   2.090   2.079   2.088   2.116   2.197   2.222   2.188   2.040   2.219   2.163   1.932   2.019   1.929   1.848   1.824   1.835   1.837   1.895   1.899   1.907   1.872   1.831   1.794   1.974   1.956   1.980   1.836   1.809   1.854   1.896   1.836   1.804   1.730   1.772   1.857   1.969   1.965   1.919   1.901   1.758   1.817   1.771   1.781   1.828   1.817   1.764   1.720   1.731   1.698   1.716   1.773   1.735   1.705   1.805   1.895   1.823   1.847   1.778   1.882   1.941   2.026   1.963
    91.00    1.580   1.580   1.662   1.652   1.617   1.746   1.760   1.820   1.802   1.827   1.902   2.099   2.040   2.114   2.224   2.186   2.132   2.117   2.002   2.114   2.148   1.946   2.033   1.940   1.848   1.861   1.835   1.788   1.857   1.794   1.860   1.904   1.863   1.771   1.914   1.947   1.956   1.880   1.904   1.816   1.782   1.736   1.823   1.778   1.802   1.811   1.857   1.941   1.965   1.823   1.745   1.821   1.767   1.788   1.731   1.722   1.570   1.700   1.631   1.630   1.600   1.665   1.700   1.696   1.834   1.797   1.829   1.820   1.730   1.830   1.907   1.884   1.951
    86.00    1.660   1.665   1.666   1.718   1.775   1.765   1.778   1.729   1.726   1.807   2.005   2.053   1.972   2.133   2.130   2.124   2.170   2.089   2.034   2.010   1.973   1.942   1.945   1.939   1.946   1.917   1.753   1.788   1.787   1.904   1.866   1.933   1.899   1.908   1.824   1.864   1.976   2.007   2.071   1.867   1.808   1.728   1.751   1.742   1.681   1.770   1.768   1.919   1.931   1.802   1.788   1.730   1.834   1.742   1.700   1.624   1.534   1.586   1.651   1.629   1.606   1.585   1.596   1.686   1.795   1.735   1.745   1.624   1.674   1.817   1.827   1.821   1.878
    81.00    1.702   1.689   1.676   1.748   1.853   1.761   1.752   1.791   1.765   1.825   1.983   2.028   2.100   2.110   2.140   2.092   2.175   2.064   1.956   1.999   2.080   1.950   1.871   1.870   1.950   1.955   1.871   1.761   1.911   1.921   1.863   1.855   1.846   1.875   1.904   1.880   1.925   1.914   1.943   1.924   1.853   1.791   1.765   1.740   1.702   1.790   1.682   1.846   1.871   1.755   1.652   1.692   1.760   1.688   1.584   1.601   1.561   1.515   1.544   1.686   1.591   1.593   1.641   1.714   1.719   1.706   1.717   1.697   1.819   1.787   1.905   2.044   1.984
    76.00    1.817   1.774   1.852   1.776   1.859   1.776   1.878   1.902   1.881   1.971   1.885   2.031   2.128   2.241   2.046   2.105   2.037   1.951   1.931   2.062   2.058   2.029   1.862   1.851   1.863   1.867   1.861   1.845   1.944   1.872   1.866   1.880   1.860   1.965   1.942   1.807   1.806   1.778   1.910   1.888   1.800   1.846   1.775   1.660   1.708   1.713   1.810   1.822   1.886   1.691   1.664   1.627   1.736   1.723   1.719   1.710   1.645   1.635   1.638   1.601   1.616   1.607   1.759   1.612   1.654   1.709   1.758   1.718   1.783   1.749   1.824   1.931   1.907
    71.00    1.906   1.883   1.794   1.797   1.857   1.948   1.982   1.949   1.944   2.024   1.938   2.103   2.132   2.149   2.112   2.006   2.008   1.960   2.111   2.008   1.902   1.970   1.803   1.820   1.890   1.892   1.829   1.868   1.810   1.847   1.873   1.859   1.885   1.907   1.883   1.728   1.858   1.865   1.759   1.866   1.793   1.868   1.792   1.731   1.707   1.838   1.820   1.837   1.801   1.773   1.778   1.651   1.706   1.708   1.740   1.749   1.689   1.646   1.669   1.722   1.662   1.695   1.711   1.723   1.694   1.700   1.758   1.712   1.572   1.692   1.876   1.828   1.791
    66.00    1.880   1.886   1.744   1.744   1.891   1.927   1.880   1.998   1.981   2.022   1.998   2.115   2.199   2.226   2.216   2.156   2.046   1.962   2.130   1.969   1.873   1.896   1.883   1.905   1.790   1.950   1.803   1.892   1.856   1.764   1.838   1.768   1.741   1.803   1.740   1.729   1.804   1.907   1.862   1.812   1.835   1.940   1.757   1.683   1.713   1.914   1.944   1.896   1.905   1.876   1.849   1.834   1.760   1.773   1.807   1.778   1.633   1.626   1.718   1.724   1.715   1.621   1.710   1.896   1.910   1.767   1.636   1.635   1.597   1.630   1.851   1.877   1.928
    61.00    1.817   1.809   1.703   1.816   1.957   1.858   1.858   2.000   1.969   1.975   2.078   2.024   2.068   2.100   2.069   2.107   2.022   2.062   2.175   2.027   1.988   2.068   1.981   1.965   1.874   1.969   1.857   1.872   1.894   1.829   1.817   1.818   1.738   1.785   1.741   1.731   1.844   1.838   1.816   1.882   1.847   1.810   1.761   1.809   1.783   1.887   1.879   1.827   1.842   1.844   1.776   1.789   1.717   1.770   1.767   1.611   1.703   1.737   1.684   1.694   1.703   1.714   1.823   1.817   1.880   1.714   1.826   1.831   1.706   1.813   1.950   2.021   2.084
    56.00    1.807   1.749   1.807   1.810   1.859   1.904   1.904   1.987   1.909   1.899   1.934   1.944   2.005   1.978   2.068   2.132   2.075   2.020   2.020   2.063   2.116   2.141   2.162   2.088   1.996   1.993   1.890   1.868   1.974   1.857   1.896   1.854   1.854   1.795   1.855   1.788   1.792   1.786   1.851   1.865   1.794   1.835   1.763   1.857   1.847   1.796   1.795   1.890   1.915   1.772   1.718   1.775   1.664   1.632   1.666   1.673   1.727   1.714   1.710   1.689   1.780   1.842   1.888   1.783   1.737   1.729   1.895   2.007   1.892   1.963   2.018   2.131   2.099
    51.00    1.861   1.835   1.882   1.884   1.818   1.830   1.958   1.962   1.936   1.879   1.931   2.005   1.895   1.938   2.021   2.017   2.007   2.012   1.937   1.870   2.000   2.003   2.060   2.069   1.977   1.838   1.886   1.766   1.928   1.923   1.926   1.921   1.909   1.776   1.876   1.802   1.823   1.870   1.845   1.877   1.833   1.798   1.797   1.926   1.868   1.714   1.699   1.772   1.859   1.872   1.842   1.721   1.730   1.663   1.683   1.660   1.637   1.596   1.644   1.666   1.738   1.871   1.939   1.928   1.945   1.807   1.890   1.974   1.857   1.983   1.979   2.108   2.004
[...]
   161.00    1.047   1.121   1.101   1.135   1.141   1.088   1.117   1.114   1.138   1.093   1.098   1.106   1.109   1.098   1.104   1.163   1.143   1.173   1.107   1.133   1.124   1.167   1.111   1.134   1.112   1.124   1.134   1.130   1.145   1.123   1.160   1.161   1.164   1.123   1.116   1.139   1.124   1.154   1.155   1.105   1.120   1.122   1.201   1.150   1.188   1.169   1.198   1.173   1.189   1.155   1.177   1.165   1.153   1.139   1.164   1.103   1.124   1.131   1.119   1.109   1.105   1.117   1.053   1.101   1.120   1.106   1.103   1.090   1.123   1.155   1.207   1.159   1.159
   156.00    1.122   1.116   1.111   1.168   1.112   1.133   1.086   1.140   1.132   1.097   1.108   1.105   1.134   1.133   1.121   1.137   1.145   1.147   1.124   1.115   1.099   1.106   1.116   1.156   1.100   1.110   1.132   1.122   1.124   1.151   1.125   1.159   1.138   1.121   1.121   1.163   1.171   1.146   1.142   1.156   1.115   1.101   1.145   1.181   1.154   1.129   1.185   1.185   1.176   1.178   1.179   1.163   1.150   1.156   1.160   1.145   1.117   1.146   1.143   1.140   1.141   1.106   1.044   1.075   1.072   1.083   1.151   1.125   1.164   1.168   1.145   1.127   1.158
   151.00    1.127   1.132   1.142   1.204   1.168   1.132   1.133   1.152   1.135   1.102   1.101   1.143   1.165   1.155   1.109   1.155   1.208   1.176   1.154   1.094   1.096   1.132   1.165   1.096   1.069   1.099   1.124   1.135   1.135   1.164   1.135   1.153   1.178   1.161   1.089   1.182   1.152   1.168   1.146   1.139   1.171   1.139   1.164   1.155   1.173   1.188   1.193   1.211   1.180   1.199   1.184   1.167   1.165   1.169   1.134   1.137   1.143   1.147   1.130   1.138   1.151   1.115   1.122   1.105   1.107   1.078   1.121   1.165   1.166   1.112   1.155   1.136   1.136
   146.00    1.170   1.154   1.143   1.140   1.151   1.135   1.159   1.153   1.112   1.137   1.135   1.148   1.164   1.140   1.145   1.103   1.132   1.118   1.122   1.135   1.137   1.153   1.163   1.109   1.090   1.066   1.123   1.122   1.161   1.125   1.142   1.125   1.143   1.118   1.107   1.131   1.135   1.159   1.160   1.174   1.179   1.197   1.190   1.158   1.180   1.209   1.199   1.209   1.197   1.145   1.195   1.210   1.151   1.152   1.164   1.199   1.185   1.155   1.169   1.133   1.113   1.153   1.119   1.119   1.113   1.100   1.181   1.154   1.145   1.160   1.136   1.105   1.126
   141.00    1.188   1.150   1.124   1.170   1.121   1.109   1.125   1.132   1.100   1.146   1.165   1.173   1.178   1.151   1.142   1.159   1.123   1.114   1.095   1.132   1.116   1.103   1.124   1.098   1.122   1.076   1.114   1.113   1.177   1.201   1.172   1.139   1.119   1.129   1.118   1.125   1.187   1.192   1.192   1.144   1.169   1.213   1.165   1.157   1.165   1.188   1.189   1.148   1.188   1.152   1.165   1.199   1.218   1.179   1.151   1.144   1.132   1.171   1.170   1.138   1.120   1.137   1.143   1.101   1.096   1.161   1.221   1.164   1.165   1.143   1.114   1.172   1.142
   136.00    1.160   1.128   1.081   1.109   1.108   1.103   1.129   1.134   1.095   1.113   1.151   1.191   1.204   1.149   1.182   1.186   1.163   1.139   1.145   1.165   1.139   1.086   1.070   1.115   1.094   1.105   1.097   1.159   1.139   1.170   1.187   1.170   1.159   1.166   1.160   1.175   1.171   1.134   1.131   1.164   1.164   1.195   1.168   1.197   1.215   1.184   1.205   1.154   1.173   1.147   1.157   1.162   1.193   1.174   1.177   1.177   1.178   1.153   1.141   1.165   1.169   1.158   1.149   1.166   1.176   1.160   1.179   1.153   1.197   1.152   1.199   1.212   1.186
   131.00    1.098   1.130   1.112   1.100   1.120   1.082   1.125   1.093   1.112   1.110   1.187   1.195   1.159   1.172   1.172   1.210   1.166   1.155   1.133   1.110   1.133   1.098   1.085   1.125   1.100   1.141   1.127   1.112   1.166   1.157   1.217   1.228   1.196   1.170   1.136   1.132   1.161   1.141   1.127   1.111   1.134   1.167   1.165   1.203   1.219   1.218   1.169   1.198   1.210   1.187   1.194   1.173   1.155   1.183   1.162   1.154   1.170   1.124   1.154   1.115   1.143   1.159   1.182   1.170   1.116   1.163   1.136   1.133   1.172   1.190   1.172   1.159   1.196
   126.00    1.076   1.089   1.092   1.096   1.109   1.100   1.113   1.133   1.100   1.126   1.163   1.143   1.124   1.116   1.142   1.140   1.171   1.139   1.111   1.103   1.102   1.111   1.093   1.128   1.119   1.147   1.144   1.159   1.183   1.207   1.192   1.239   1.174   1.177   1.123   1.150   1.150   1.199   1.133   1.162   1.157   1.141   1.151   1.185   1.161   1.159   1.194   1.190   1.202   1.218   1.201   1.189   1.121   1.142   1.141   1.135   1.169   1.163   1.149   1.125   1.154   1.166   1.162   1.166   1.139   1.147   1.102   1.138   1.164   1.200   1.203   1.213   1.159
   121.00    1.082   1.088   1.093   1.114   1.087   1.077   1.097   1.102   1.103   1.094   1.112   1.102   1.083   1.065   1.100   1.087   1.106   1.154   1.146   1.145   1.132   1.121   1.116   1.086   1.115   1.149   1.143   1.148   1.161   1.196   1.217   1.244   1.183   1.147   1.153   1.162   1.146   1.169   1.182   1.146   1.140   1.159   1.177   1.127   1.161   1.143   1.177   1.168   1.194   1.191   1.157   1.160   1.155   1.169   1.171   1.148   1.130   1.115   1.106   1.118   1.124   1.186   1.171   1.138   1.150   1.165   1.127   1.161   1.169   1.163   1.179   1.187   1.178
   116.00    1.093   1.081   1.077   1.096   1.085   1.086   1.108   1.104   1.112   1.125   1.090   1.065   1.076   1.086   1.094   1.065   1.047   1.113   1.140   1.154   1.135   1.115   1.088   1.116   1.132   1.132   1.157   1.133   1.180   1.210   1.216   1.216   1.120   1.181   1.214   1.222   1.179   1.149   1.154   1.154   1.133   1.157   1.157   1.168   1.177   1.144   1.173   1.135   1.178   1.126   1.156   1.166   1.158   1.225   1.204   1.191   1.131   1.093   1.086   1.101   1.174   1.194   1.181   1.161   1.152   1.137   1.136   1.153   1.144   1.168   1.141   1.116   1.154
   111.00    1.071   1.073   1.070   1.052   1.093   1.155   1.084   1.134   1.132   1.115   1.109   1.119   1.063   1.106   1.127   1.109   1.077   1.103   1.119   1.151   1.088   1.101   1.081   1.087   1.099   1.091   1.113   1.119   1.150   1.213   1.209   1.166   1.127   1.134   1.138   1.142   1.188   1.145   1.141   1.156   1.103   1.103   1.170   1.202   1.153   1.120   1.143   1.141   1.130   1.120   1.118   1.143   1.143   1.210   1.220   1.188   1.150   1.090   1.096   1.115   1.198   1.189   1.195   1.163   1.139   1.148   1.107   1.149   1.171   1.190   1.179   1.126   1.133
   106.00    1.122   1.102   1.110   1.109   1.121   1.162   1.186   1.162   1.157   1.139   1.120   1.092   1.082   1.072   1.137   1.082   1.039   1.075   1.099   1.116   1.108   1.084   1.090   1.130   1.126   1.091   1.120   1.097   1.120   1.160   1.188   1.195   1.173   1.150   1.111   1.074   1.119   1.132   1.115   1.092   1.138   1.135   1.140   1.163   1.116   1.147   1.188   1.160   1.160   1.200   1.197   1.173   1.191   1.198   1.222   1.201   1.178   1.122   1.089   1.113   1.152   1.176   1.157   1.158   1.151   1.154   1.109   1.141   1.171   1.157   1.136   1.167   1.140
   101.00    1.111   1.143   1.149   1.132   1.120   1.132   1.146   1.149   1.102   1.115   1.073   1.094   1.099   1.141   1.095   1.086   1.053   1.042   1.064   1.074   1.099   1.147   1.121   1.109   1.132   1.085   1.098   1.065   1.119   1.147   1.190   1.221   1.201   1.103   1.128   1.076   1.102   1.121   1.078   1.089   1.111   1.112   1.133   1.133   1.164   1.189   1.173   1.172   1.202   1.195   1.185   1.222   1.209   1.190   1.214   1.229   1.172   1.099   1.112   1.095   1.131   1.130   1.122   1.120   1.166   1.141   1.132   1.117   1.130   1.144   1.135   1.163   1.197
    96.00    1.183   1.183   1.144   1.193   1.144   1.122   1.158   1.154   1.112   1.135   1.082   1.099   1.084   1.150   1.136   1.057   1.097   1.069   1.071   1.127   1.125   1.149   1.087   1.131   1.083   1.065   1.019   1.068   1.092   1.154   1.157   1.215   1.180   1.176   1.143   1.125   1.117   1.136   1.111   1.072   1.113   1.114   1.170   1.175   1.190   1.172   1.160   1.187   1.203   1.183   1.184   1.209   1.149   1.157   1.206   1.234   1.234   1.199   1.160   1.131   1.129   1.103   1.091   1.118   1.141   1.135   1.146   1.125   1.148   1.167   1.180   1.190   1.159
    91.00    1.179   1.189   1.196   1.223   1.170   1.203   1.163   1.132   1.158   1.110   1.091   1.109   1.135   1.106   1.077   1.044   1.098   1.088   1.084   1.139   1.131   1.129   1.132   1.091   1.093   1.032   1.024   1.042   1.058   1.081   1.164   1.144   1.191   1.155   1.201   1.117   1.136   1.133   1.123   1.111   1.097   1.120   1.134   1.169   1.192   1.177   1.161   1.174   1.184   1.173   1.160   1.152   1.155   1.192   1.212   1.256   1.206   1.217   1.197   1.164   1.146   1.098   1.124   1.106   1.118   1.127   1.133   1.143   1.151   1.158   1.172   1.166   1.135
    86.00    1.222   1.179   1.196   1.247   1.202   1.181   1.161   1.170   1.159   1.101   1.080   1.093   1.081   1.087   1.079   1.086   1.101   1.073   1.107   1.119   1.118   1.106   1.127   1.132   1.118   1.088   1.074   1.056   1.064   1.082   1.134   1.129   1.157   1.158   1.178   1.145   1.101   1.178   1.145   1.140   1.129   1.178   1.150   1.141   1.184   1.137   1.161   1.129   1.168   1.145   1.150   1.169   1.157   1.162   1.178   1.195   1.139   1.184   1.164   1.176   1.144   1.102   1.092   1.140   1.122   1.111   1.145   1.134   1.143   1.157   1.163   1.145   1.113
    81.00    1.257   1.265   1.187   1.181   1.184   1.170   1.161   1.155   1.139   1.087   1.025   1.083   1.129   1.109   1.109   1.127   1.061   1.093   1.084   1.105   1.134   1.113   1.073   1.090   1.100   1.088   1.090   1.100   1.077   1.096   1.116   1.154   1.146   1.143   1.150   1.181   1.143   1.136   1.158   1.170   1.200   1.162   1.165   1.156   1.162   1.140   1.168   1.122   1.130   1.208   1.167   1.116   1.115   1.167   1.121   1.175   1.108   1.161   1.123   1.125   1.166   1.155   1.132   1.128   1.166   1.171   1.140   1.138   1.124   1.106   1.181   1.164   1.125
    76.00    1.265   1.253   1.217   1.177   1.193   1.136   1.148   1.131   1.108   1.073   1.038   1.112   1.124   1.118   1.148   1.096   1.103   1.115   1.116   1.159   1.160   1.144   1.081   1.064   1.083   1.109   1.111   1.097   1.100   1.097   1.118   1.100   1.169   1.143   1.164   1.115   1.162   1.144   1.138   1.192   1.214   1.174   1.125   1.137   1.152   1.181   1.170   1.147   1.154   1.201   1.168   1.146   1.147   1.157   1.121   1.164   1.126   1.132   1.092   1.121   1.149   1.150   1.159   1.139   1.192   1.182   1.169   1.131   1.145   1.144   1.145   1.171   1.163
    71.00    1.276   1.223   1.214   1.178   1.202   1.162   1.151   1.083   1.110   1.063   1.073   1.158   1.153   1.125   1.147   1.110   1.100   1.063   1.092   1.166   1.172   1.104   1.065   1.081   1.075   1.102   1.135   1.073   1.100   1.115   1.132   1.105   1.099   1.167   1.202   1.134   1.154   1.198   1.172   1.150   1.176   1.181   1.194   1.190   1.185   1.176   1.160   1.175   1.209   1.209   1.194   1.196   1.182   1.185   1.167   1.145   1.128   1.114   1.106   1.094   1.131   1.155   1.158   1.195   1.197   1.169   1.199   1.158   1.160   1.171   1.203   1.147   1.147
    66.00    1.249   1.242   1.221   1.152   1.163   1.119   1.081   1.120   1.102   1.028   1.059   1.105   1.158   1.157   1.151   1.140   1.141   1.092   1.082   1.106   1.092   1.068   1.106   1.110   1.097   1.098   1.110   1.063   1.077   1.139   1.122   1.159   1.149   1.142   1.176   1.174   1.173   1.193   1.148   1.158   1.130   1.149   1.191   1.168   1.157   1.174   1.211   1.230   1.183   1.127   1.210   1.224   1.205   1.198   1.200   1.181   1.130   1.115   1.150   1.107   1.119   1.114   1.113   1.146   1.132   1.154   1.207   1.178   1.182   1.197   1.169   1.163   1.144
    61.00    1.211   1.226   1.218   1.162   1.175   1.143   1.094   1.163   1.130   1.045   1.073   1.122   1.116   1.160   1.183   1.144   1.167   1.134   1.086   1.083   1.075   1.077   1.054   1.088   1.107   1.080   1.083   1.098   1.068   1.102   1.078   1.079   1.153   1.100   1.131   1.136   1.158   1.210   1.196   1.172   1.205   1.163   1.187   1.178   1.180   1.145   1.174   1.229   1.189   1.176   1.203   1.250   1.232   1.178   1.198   1.176   1.171   1.128   1.154   1.162   1.104   1.119   1.119   1.144   1.159   1.141   1.165   1.167   1.182   1.234   1.181   1.135   1.135
    56.00    1.232   1.209   1.210   1.183   1.150   1.165   1.152   1.184   1.128   1.067   1.100   1.121   1.064   1.117   1.136   1.166   1.138   1.120   1.082   1.070   1.081   1.072   1.057   1.061   1.091   1.089   1.110   1.134   1.141   1.132   1.069   1.091   1.136   1.110   1.117   1.138   1.128   1.170   1.189   1.222   1.202   1.198   1.179   1.148   1.201   1.187   1.197   1.264   1.213   1.162   1.237   1.280   1.240   1.187   1.176   1.166   1.140   1.142   1.190   1.180   1.149   1.138   1.171   1.167   1.125   1.159   1.186   1.203   1.171   1.193   1.230   1.194   1.152
    51.00    1.232   1.174   1.187   1.197   1.152   1.185   1.153   1.140   1.075   1.073   1.068   1.139   1.104   1.122   1.164   1.169   1.144   1.126   1.146   1.109   1.080   1.100   1.096   1.093   1.112   1.112   1.118   1.136   1.121   1.104   1.058   1.055   1.106   1.111   1.113   1.117   1.102   1.153   1.155   1.206   1.141   1.187   1.154   1.148   1.168   1.220   1.198   1.230   1.226   1.209   1.221   1.224   1.222   1.198   1.143   1.127   1.121   1.152   1.203   1.177   1.216   1.186   1.179   1.184   1.162   1.155   1.154   1.200   1.193   1.198   1.191   1.159   1.174
    46.00    1.184   1.151   1.164   1.185   1.159   1.186   1.135   1.145   1.096   1.105   1.118   1.091   1.141   1.122   1.156   1.207   1.164   1.131   1.132   1.094   1.093   1.099   1.087   1.100   1.103   1.111   1.103   1.119   1.103   1.075   1.104   1.100   1.114   1.097   1.067   1.158   1.174   1.127   1.146   1.168   1.137   1.169   1.148   1.114   1.173   1.190   1.166   1.220   1.269   1.236   1.233   1.244   1.186   1.205   1.164   1.179   1.183   1.138   1.146   1.162   1.151   1.167   1.181   1.123   1.152   1.151   1.140   1.150   1.168   1.177   1.148   1.191   1.172
    41.00    1.203   1.190   1.204   1.186   1.226   1.176   1.142   1.131   1.131   1.139   1.095   1.108   1.130   1.130   1.118   1.148   1.123   1.126   1.122   1.094   1.082   1.089   1.125   1.110   1.103   1.129   1.135   1.121   1.095   1.103   1.060   1.119   1.143   1.133   1.092   1.142   1.186   1.128   1.124   1.157   1.128   1.150   1.145   1.169   1.147   1.172   1.229   1.180   1.230   1.229   1.200   1.234   1.228   1.202   1.170   1.174   1.168   1.141   1.119   1.112   1.125   1.146   1.154   1.151   1.119   1.104   1.138   1.108   1.155   1.135   1.134   1.174   1.202
    36.00    1.204   1.191   1.212   1.212   1.257   1.183   1.172   1.131   1.131   1.186   1.157   1.125   1.135   1.108   1.127   1.109   1.112   1.154   1.107   1.059   1.094   1.111   1.118   1.054   1.089   1.083   1.161   1.160   1.144   1.154   1.165   1.141   1.144   1.096   1.142   1.168   1.188   1.158   1.117   1.189   1.133   1.146   1.113   1.125   1.113   1.146   1.169   1.136   1.182   1.188   1.281   1.235   1.213   1.186   1.136   1.130   1.126   1.155   1.150   1.116   1.104   1.143   1.138   1.121   1.105   1.119   1.116   1.104   1.141   1.130   1.130   1.125   1.121
    31.00    1.246   1.206   1.203   1.228   1.208   1.197   1.168   1.151   1.155   1.170   1.144   1.151   1.173   1.184   1.119   1.096   1.119   1.122   1.114   1.137   1.111   1.110   1.135   1.133   1.118   1.104   1.144   1.166   1.198   1.160   1.183   1.160   1.141   1.125   1.165   1.184   1.106   1.141   1.134   1.121   1.126   1.134   1.148   1.150   1.118   1.159   1.154   1.128   1.166   1.227   1.232   1.221   1.198   1.153   1.154   1.161   1.139   1.134   1.158   1.170   1.099   1.132   1.100   1.137   1.121   1.130   1.142   1.135   1.113   1.112   1.150   1.130   1.122
    26.00    1.212   1.223   1.190   1.177   1.149   1.115   1.135   1.135   1.165   1.136   1.136   1.143   1.159   1.129   1.086   1.135   1.134   1.143   1.142   1.095   1.148   1.129   1.157   1.145   1.156   1.145   1.192   1.174   1.155   1.182   1.182   1.163   1.192   1.158   1.135   1.120   1.125   1.131   1.169   1.160   1.115   1.086   1.129   1.108   1.124   1.120   1.110   1.149   1.196   1.234   1.236   1.217   1.197   1.160   1.148   1.167   1.123   1.146   1.181   1.178   1.110   1.085   1.097   1.136   1.139   1.143   1.183   1.189   1.113   1.127   1.131   1.158   1.091
    21.00    1.161   1.158   1.154   1.101   1.100   1.127   1.155   1.157   1.184   1.138   1.129   1.130   1.166   1.150   1.139   1.164   1.154   1.120   1.134   1.098   1.153   1.179   1.160   1.194   1.152   1.192   1.188   1.202   1.157   1.182   1.158   1.162   1.178   1.146   1.132   1.094   1.106   1.137   1.135   1.140   1.137   1.096   1.107   1.108   1.127   1.136   1.159   1.185   1.169   1.184   1.195   1.189   1.174   1.162   1.136   1.158   1.156   1.153   1.164   1.139   1.130   1.142   1.101   1.107   1.124   1.125   1.153   1.197   1.187   1.149   1.153   1.159   1.125
    16.00    1.149   1.141   1.107   1.156   1.133   1.129   1.151   1.178   1.180   1.107   1.112   1.163   1.165   1.151   1.161   1.155   1.143   1.124   1.099   1.117   1.109   1.106   1.159   1.123   1.108   1.194   1.201   1.198   1.148   1.194   1.168   1.134   1.161   1.108   1.100   1.058   1.114   1.138   1.166   1.171   1.100   1.072   1.126   1.114   1.139   1.127   1.151   1.126   1.168   1.174   1.181   1.192   1.171   1.183   1.182   1.128   1.118   1.086   1.116   1.146   1.157   1.171   1.116   1.124   1.139   1.165   1.173   1.157   1.162   1.140   1.126   1.186   1.139
    11.00    1.139   1.125   1.152   1.137   1.134   1.139   1.110   1.096   1.111   1.105   1.140   1.155   1.162   1.149   1.161   1.137   1.124   1.107   1.103   1.067   1.085   1.161   1.149   1.154   1.144   1.170   1.161   1.151   1.154   1.140   1.128   1.141   1.116   1.107   1.125   1.109   1.104   1.100   1.162   1.166   1.081   1.081   1.140   1.100   1.116   1.130   1.148   1.127   1.167   1.163   1.180   1.153   1.195   1.198   1.197   1.134   1.143   1.096   1.105   1.168   1.170   1.179   1.169   1.125   1.156   1.142   1.161   1.152   1.135   1.113   1.131   1.134   1.153
     6.00    1.154   1.160   1.153   1.181   1.158   1.118   1.111   1.114   1.112   1.106   1.134   1.151   1.177   1.188   1.123   1.178   1.109   1.054   1.109   1.081   1.126   1.116   1.159   1.124   1.157   1.168   1.151   1.166   1.135   1.077   1.087   1.133   1.105   1.106   1.135   1.117   1.148   1.108   1.128   1.185   1.129   1.113   1.131   1.146   1.105   1.142   1.156   1.188   1.156   1.180   1.110   1.166   1.214   1.188   1.164   1.179   1.135   1.152   1.095   1.120   1.122   1.168   1.131   1.148   1.147   1.153   1.168   1.152   1.132   1.147   1.137   1.174   1.193
     1.00    1.144   1.135   1.163   1.195   1.194   1.144   1.141   1.110   1.125   1.121   1.136   1.108   1.145   1.144   1.145   1.139   1.119   1.104   1.109   1.095   1.100   1.120   1.149   1.107   1.134   1.116   1.104   1.130   1.106   1.090   1.081   1.123   1.099   1.118   1.128   1.162   1.160   1.150   1.107   1.144   1.156   1.132   1.146   1.151   1.137   1.148   1.174   1.155   1.170   1.168   1.143   1.154   1.183   1.167   1.139   1.189   1.185   1.170   1.175   1.144   1.149   1.122   1.125   1.168   1.124   1.139   1.186   1.159   1.146   1.134   1.162   1.188   1.209

   Mean standard deviation across all grid points:
      u component:    2.205 m/s
      v component:    1.897 m/s
      w component:    1.144 m/s


U-component (X) statistics from the interpolated hub point:

   Mean =  11.6748 m/s
   TI   =  20.2567 %


Processing complete.  11020 CPU seconds used.
