
This summary file was generated by TurbSim (from OpenFAST-v3.3.0) on 09-Jan-2023 at 13:48:41.


Runtime Options:

         1  Random seed #1
         9  Random seed #2
         F  Output binary HH turbulence parameters?
         F  Output formatted turbulence parameters?
         F  Output AeroDyn HH files?
         T  Output AeroDyn FF files?
         F  Output BLADED FF files?
         F  Output tower data?
         F  Output HAWC FF files?
         F  Output formatted FF files?
         T  Output coherent turbulence time step file?
 0 -  NONE  IEC turbulence models scaled to exact specified standard deviation


Turbine/Model Specifications:

        61  Vertical grid-point matrix dimension
        73  Horizontal grid-point matrix dimension
     0.100  Time step [seconds]
   600.000  Analysis time [seconds]
   600.000  Usable output time [seconds]
   151.000  Hub height [m]
   300.000  Grid height [m]
   360.000  Grid width [m]
     0.000  Vertical flow angle [degrees]
     0.000  Horizontal flow angle [degrees]


Meteorological Boundary Conditions:

    TIMESR  User-input time series spectral model
       N/A  IEC standard
       N/A  IEC turbulence characteristic
       N/A  IEC turbulence type
       N/A  IEC Extreme Turbulence Model (ETM) "c" parameter [m/s]
       PL   Wind profile type
   119.000  Reference height [m]
    11.400  Reference wind speed [m/s]
       N/A  Jet height [m]
     0.100  Power law exponent
     0.030  Surface roughness length [m]


Non-IEC Meteorological Boundary Conditions:

    45.000  Site latitude [degrees]
     0.050  Gradient Richardson number
     0.529  Friction or shear velocity [m/s]
       N/A  Mixing layer depth [m]
       N/A  Mean hub u'w' Reynolds stress
       N/A  Mean hub u'v' Reynolds stress
       N/A  Mean hub v'w' Reynolds stress


Spatial Coherence Models:

       IEC  u-component coherence model
       IEC  v-component coherence model
       IEC  w-component coherence model
(   12.000, 0.659E-03)  u-component coherence parameters
(   12.000, 0.659E-03)  v-component coherence parameters
(   12.000, 0.659E-03)  w-component coherence parameters
       N/A  Coherence exponent


Coherent Turbulence Scaling Parameters:

.\EventData
            Name of the path containing the coherent turbulence data files
       les  Type of coherent turbulence data files
     1.000  Disturbance scale (ratio of wave height to rotor diameter)
     0.500  Fractional location of tower centerline from right
     0.500  Fractional location of hub height from the bottom of the dataset
    30.000  Minimum start time for coherent structures [seconds]


Profiles from User-Defined Time-Series Input:

  Height   Wind Speed   Horizontal Angle   Vertical Angle
   (m)        (m/s)          (deg)              (deg)    
  ------   ----------   ----------------   --------------
  119.00      11.47           0.00                0.00


You have requested that the following file(s) be generated:

   HighT10.bts (AeroDyn/TurbSim full-field wind file)


Turbulence Simulation Scaling Parameter Summary:

   Turbulence model used                            =  User-input time series
   Gradient Richardson number                       =    0.050
   Monin-Obukhov (M-O) z/L parameter                =    0.067
   Monin-Obukhov (M-O) length scale                 = 2265.000 m
   Mean wind speed at hub height                    =   11.675 m/s

   Wind profile type                                =  Power law
   Power law exponent                               =    0.100
   Mean shear across rotor disk                     =    0.018 (m/s)/m
   Assumed rotor diameter                           =  300.000 m
   Surface roughness length                         =    0.030 m

   Nyquist frequency of turbulent wind field        =    5.000 Hz

   Number of time steps in the FFT                  =     6000
   Number of time steps output                      =     6000
   Number of points simulated                       =     4454


Mean Flow Angles:

   Vertical   =   0.0 degrees
   Horizontal =   0.0 degrees

Mean Wind Speed Profile:

   Height    Wind Speed   Horizontal Angle  Vertical Angle  U-comp (X)   V-comp (Y)   W-comp (Z)
     (m)        (m/s)         (degrees)       (degrees)       (m/s)        (m/s)        (m/s)   
   ------    ----------   ----------------  --------------  ----------   ----------   ----------
    301.0       12.51            0.00            0.00         12.51         0.00         0.00
    296.0       12.49            0.00            0.00         12.49         0.00         0.00
    291.0       12.47            0.00            0.00         12.47         0.00         0.00
    286.0       12.44            0.00            0.00         12.44         0.00         0.00
    281.0       12.42            0.00            0.00         12.42         0.00         0.00
    276.0       12.40            0.00            0.00         12.40         0.00         0.00
    271.0       12.38            0.00            0.00         12.38         0.00         0.00
    266.0       12.35            0.00            0.00         12.35         0.00         0.00
    261.0       12.33            0.00            0.00         12.33         0.00         0.00
    256.0       12.31            0.00            0.00         12.31         0.00         0.00
    251.0       12.28            0.00            0.00         12.28         0.00         0.00
    246.0       12.26            0.00            0.00         12.26         0.00         0.00
    241.0       12.23            0.00            0.00         12.23         0.00         0.00
    236.0       12.21            0.00            0.00         12.21         0.00         0.00
    231.0       12.18            0.00            0.00         12.18         0.00         0.00
    226.0       12.16            0.00            0.00         12.16         0.00         0.00
    221.0       12.13            0.00            0.00         12.13         0.00         0.00
    216.0       12.10            0.00            0.00         12.10         0.00         0.00
    211.0       12.07            0.00            0.00         12.07         0.00         0.00
    206.0       12.04            0.00            0.00         12.04         0.00         0.00
    201.0       12.01            0.00            0.00         12.01         0.00         0.00
    196.0       11.98            0.00            0.00         11.98         0.00         0.00
    191.0       11.95            0.00            0.00         11.95         0.00         0.00
    186.0       11.92            0.00            0.00         11.92         0.00         0.00
    181.0       11.89            0.00            0.00         11.89         0.00         0.00
    176.0       11.85            0.00            0.00         11.85         0.00         0.00
    171.0       11.82            0.00            0.00         11.82         0.00         0.00
    166.0       11.79            0.00            0.00         11.79         0.00         0.00
    161.0       11.75            0.00            0.00         11.75         0.00         0.00
    156.0       11.71            0.00            0.00         11.71         0.00         0.00
    151.0       11.67            0.00            0.00         11.67         0.00         0.00
    146.0       11.64            0.00            0.00         11.64         0.00         0.00
    141.0       11.60            0.00            0.00         11.60         0.00         0.00
    136.0       11.55            0.00            0.00         11.55         0.00         0.00
    131.0       11.51            0.00            0.00         11.51         0.00         0.00
    126.0       11.47            0.00            0.00         11.47         0.00         0.00
    121.0       11.42            0.00            0.00         11.42         0.00         0.00
    116.0       11.37            0.00            0.00         11.37         0.00         0.00
    111.0       11.32            0.00            0.00         11.32         0.00         0.00
    106.0       11.27            0.00            0.00         11.27         0.00         0.00
    101.0       11.21            0.00            0.00         11.21         0.00         0.00
     96.0       11.16            0.00            0.00         11.16         0.00         0.00
     91.0       11.10            0.00            0.00         11.10         0.00         0.00
     86.0       11.04            0.00            0.00         11.04         0.00         0.00
     81.0       10.97            0.00            0.00         10.97         0.00         0.00
     76.0       10.90            0.00            0.00         10.90         0.00         0.00
     71.0       10.83            0.00            0.00         10.83         0.00         0.00
     66.0       10.75            0.00            0.00         10.75         0.00         0.00
     61.0       10.66            0.00            0.00         10.66         0.00         0.00
     56.0       10.57            0.00            0.00         10.57         0.00         0.00
     51.0       10.47            0.00            0.00         10.47         0.00         0.00
     46.0       10.37            0.00            0.00         10.37         0.00         0.00
     41.0       10.25            0.00            0.00         10.25         0.00         0.00
     36.0       10.12            0.00            0.00         10.12         0.00         0.00
     31.0        9.97            0.00            0.00          9.97         0.00         0.00
     26.0        9.79            0.00            0.00          9.79         0.00         0.00
     21.0        9.58            0.00            0.00          9.58         0.00         0.00
     16.0        9.33            0.00            0.00          9.33         0.00         0.00
     11.0        8.98            0.00            0.00          8.98         0.00         0.00
      6.0        8.46            0.00            0.00          8.46         0.00         0.00
      1.0        7.07            0.00            0.00          7.07         0.00         0.00


Harvested Random Seeds after Generation of the Random Numbers:

   2107445636 Harvested seed # 1
    866872140 Harvested seed # 2


Hub-Height Simulated Turbulence Statistical Summary:

   Type of Wind        Min (m/s)   Mean (m/s)    Max (m/s)  Sigma (m/s)       TI (%)
   ----------------    ---------   ----------    ---------  -----------       ------
   Longitudinal (u)         3.75        11.67        19.10        2.062       17.661
   Lateral (v)             -5.70        -0.00         5.80        1.660       14.222
   Vertical (w)            -4.44         0.00         4.89        1.354       11.598
   U component              3.75        11.67        19.10        2.062       17.661
   V component             -5.70        -0.00         5.80        1.660       14.222
   W component             -4.44         0.00         4.89        1.354       11.598
   Horizontal (U&V)         3.77        11.79        19.10        2.047       17.355
   Total                    3.94        11.87        19.13        2.039       17.174

                       Min Reynolds     Mean Reynolds    Max Reynolds    Correlation
   Product             Stress (m/s)^2   Stress (m/s)^2   Stress (m/s)^2  Coefficient
   ----------------    --------------   --------------   --------------  -----------
   u'w'                    -15.335             0.152            12.616         0.055
   u'v'                    -16.469             0.101            13.071         0.029
   v'w'                    -16.034            -0.102            18.171        -0.045


   Friction Velocity (Ustar)  =      0.390 m/s
   Maximum Instantaneous TKE  =     32.121 (m/s)^2
   Maximum Instantaneous CTKE =      9.989 (m/s)^2


Grid Point Variance Summary:

   Y-coord -180.00 -175.00 -170.00 -165.00 -160.00 -155.00 -150.00 -145.00 -140.00 -135.00 -130.00 -125.00 -120.00 -115.00 -110.00 -105.00 -100.00  -95.00  -90.00  -85.00  -80.00  -75.00  -70.00  -65.00  -60.00  -55.00  -50.00  -45.00  -40.00  -35.00  -30.00  -25.00  -20.00  -15.00  -10.00   -5.00    0.00    5.00   10.00   15.00   20.00   25.00   30.00   35.00   40.00   45.00   50.00   55.00   60.00   65.00   70.00   75.00   80.00   85.00   90.00   95.00  100.00  105.00  110.00  115.00  120.00  125.00  130.00  135.00  140.00  145.00  150.00  155.00  160.00  165.00  170.00  175.00  180.00

   Height   Standard deviation at grid points for the u component:
   301.00    2.247   2.244   2.107   2.161   2.130   2.176   2.167   2.327   2.324   2.321   2.323   2.226   2.187   2.070   1.999   1.895   1.890   1.785   1.863   1.975   1.943   1.948   2.040   2.172   2.078   1.934   1.902   1.942   2.039   2.147   2.166   2.295   2.302   2.081   2.045   2.084   1.994   2.075   1.980   1.867   1.873   2.113   2.205   1.990   1.941   1.910   1.941   1.771   1.940   2.086   2.186   2.172   2.196   2.116   2.209   2.105   2.198   2.252   2.205   2.234   2.261   2.010   2.073   2.144   2.267   2.333   2.482   2.488   2.466   2.448   2.467   2.625   2.582
   296.00    2.127   2.179   2.114   1.984   2.045   2.057   2.047   2.186   2.351   2.129   2.173   1.944   2.084   2.037   1.965   1.943   1.923   2.009   1.909   1.908   1.953   1.840   2.015   2.004   1.975   1.859   1.886   1.960   2.002   2.288   2.341   2.341   2.451   2.244   2.262   2.144   2.125   2.165   2.098   1.955   2.040   2.013   2.094   1.938   1.974   1.867   1.971   1.956   1.840   1.949   2.089   2.192   2.337   2.114   2.159   2.191   2.181   2.190   2.245   2.315   2.288   2.052   2.016   2.202   2.296   2.378   2.362   2.281   2.140   2.409   2.385   2.595   2.469
   291.00    2.107   2.136   2.234   2.166   1.942   2.019   2.039   2.016   2.255   2.019   1.978   1.965   2.018   2.077   1.975   2.157   2.110   2.102   1.840   1.783   1.922   1.944   2.095   2.100   1.974   2.128   2.076   2.013   2.182   2.356   2.558   2.429   2.502   2.450   2.455   2.362   2.386   2.126   2.021   1.976   2.009   1.953   1.975   2.019   1.924   2.017   1.941   2.024   1.981   2.076   2.094   2.264   2.294   2.111   2.167   2.251   2.299   2.132   2.175   2.203   2.213   2.087   2.171   2.255   2.364   2.307   2.291   2.240   2.245   2.430   2.371   2.404   2.529
   286.00    2.095   2.056   2.095   2.098   2.135   2.118   2.084   1.992   2.128   2.069   2.046   2.068   2.094   2.073   2.025   2.210   2.170   2.120   1.991   1.839   1.898   1.876   1.965   2.089   2.262   2.045   2.158   2.123   2.318   2.480   2.652   2.648   2.484   2.397   2.665   2.599   2.405   2.163   2.020   2.006   2.079   2.000   2.003   1.962   2.032   1.958   2.029   2.065   2.012   2.120   2.215   2.330   2.249   2.264   2.113   2.331   2.345   2.234   2.261   2.316   2.240   2.254   2.385   2.427   2.474   2.349   2.274   2.266   2.122   2.330   2.443   2.296   2.409
   281.00    1.982   2.015   2.031   2.062   1.827   1.990   1.856   2.045   2.043   1.951   2.056   2.061   2.135   2.005   2.087   2.171   2.209   2.080   2.027   1.988   1.987   1.856   1.992   2.048   2.068   2.171   2.163   2.241   2.562   2.711   2.643   2.573   2.443   2.648   2.622   2.615   2.464   2.259   2.203   1.999   1.860   1.850   1.983   1.998   1.955   2.017   2.134   2.198   1.989   2.241   2.121   2.240   2.363   2.288   2.314   2.346   2.239   2.117   2.276   2.307   2.250   2.199   2.252   2.347   2.413   2.234   2.253   2.135   2.063   2.114   2.235   2.346   2.411
   276.00    1.957   1.984   1.879   2.030   1.890   2.090   1.906   2.035   2.099   2.085   2.089   1.985   2.023   1.899   2.052   2.119   2.078   2.098   1.926   1.994   2.020   2.029   2.198   2.170   2.087   2.046   2.089   2.281   2.594   2.727   2.630   2.460   2.454   2.635   2.535   2.578   2.575   2.465   2.117   1.998   1.878   1.838   1.980   1.949   2.140   2.073   2.059   2.189   2.188   2.213   2.094   2.139   2.384   2.167   2.228   2.081   2.143   2.193   2.346   2.370   2.144   2.113   2.226   2.212   2.060   2.089   2.244   2.152   2.079   2.135   2.103   2.208   2.277
   271.00    2.175   2.025   1.960   1.931   1.912   1.870   1.986   2.035   2.109   2.247   2.165   2.173   2.088   1.919   2.040   1.990   2.011   1.909   1.808   1.935   2.144   1.929   2.136   2.071   2.010   1.832   2.201   2.192   2.447   2.490   2.659   2.532   2.546   2.681   2.690   2.609   2.581   2.353   2.061   2.119   2.048   1.911   1.973   2.046   1.957   2.079   2.144   2.189   2.215   2.225   2.207   2.137   2.430   2.354   2.295   2.198   2.178   2.164   2.103   2.183   2.110   2.246   2.306   2.180   2.048   2.002   2.101   2.038   2.147   2.122   2.035   2.023   2.100
   266.00    2.083   2.113   1.900   1.833   1.793   1.943   2.005   2.080   2.231   2.149   2.112   2.135   2.043   1.875   1.941   1.959   1.967   1.846   1.926   2.073   2.117   2.079   2.034   1.946   1.987   2.030   2.196   2.272   2.270   2.506   2.492   2.511   2.593   2.660   2.553   2.585   2.491   2.338   2.185   2.013   2.073   1.991   2.121   2.121   1.927   1.989   2.071   2.123   2.044   2.092   2.054   2.268   2.375   2.230   2.220   2.130   2.212   2.024   2.171   2.139   2.053   2.082   2.145   2.145   2.043   1.854   1.923   2.022   2.012   1.995   1.905   1.882   1.959
   261.00    1.920   1.966   2.053   1.838   1.851   1.928   2.143   2.095   2.249   2.220   2.225   2.179   1.982   1.977   2.028   1.904   1.873   1.859   2.033   2.090   2.260   2.302   2.127   1.988   2.014   1.932   2.150   2.242   2.418   2.548   2.622   2.825   2.805   2.681   2.574   2.513   2.437   2.408   2.252   2.231   2.135   2.117   2.096   2.174   1.951   2.001   2.126   2.079   2.185   2.100   1.994   2.060   2.087   2.017   1.976   2.033   2.018   2.009   2.175   1.952   1.936   2.001   2.039   2.086   2.198   1.914   1.939   1.871   1.976   1.899   1.956   1.958   1.888
   256.00    1.965   1.869   1.928   1.999   1.975   2.104   2.131   2.209   2.161   2.031   2.106   2.129   1.948   1.808   1.901   1.911   1.917   1.925   1.989   2.271   2.279   2.180   2.275   2.195   1.950   2.068   2.111   2.346   2.405   2.364   2.480   2.625   2.570   2.487   2.535   2.641   2.566   2.380   2.169   2.076   2.180   1.985   1.979   2.259   2.218   2.109   2.121   2.164   2.204   2.087   2.043   1.807   1.890   1.951   2.037   2.015   2.105   2.016   1.959   1.983   1.835   1.925   1.950   1.903   1.897   1.997   1.900   1.885   1.794   1.957   1.828   1.881   1.895
   251.00    1.901   1.894   1.927   1.936   2.016   2.112   2.187   2.211   2.293   2.255   2.260   1.989   1.924   2.036   2.011   1.863   2.006   2.016   1.981   2.232   2.141   2.347   2.277   2.084   1.986   2.263   2.290   2.530   2.530   2.391   2.471   2.462   2.459   2.442   2.466   2.546   2.447   2.303   2.206   2.264   2.267   2.072   2.264   2.232   2.296   2.321   2.310   2.227   2.050   2.089   1.969   1.881   1.888   1.880   1.992   2.139   2.172   1.873   1.946   1.896   2.005   2.027   2.005   1.933   1.842   1.934   2.009   2.029   1.779   1.866   1.901   1.820   1.899
   246.00    1.686   1.845   1.920   2.046   2.098   2.062   2.145   2.379   2.498   2.340   2.255   1.962   1.895   2.006   2.027   2.158   1.995   1.963   2.114   2.223   2.423   2.350   2.250   2.262   2.149   2.285   2.291   2.460   2.664   2.614   2.620   2.702   2.610   2.389   2.417   2.359   2.277   2.282   2.271   2.293   2.239   2.173   2.322   2.377   2.481   2.319   2.376   2.167   1.991   2.115   1.957   1.871   2.014   2.011   2.156   2.159   2.226   1.942   1.969   2.050   2.022   1.932   1.942   2.060   1.907   1.808   1.980   1.860   1.847   1.798   1.908   1.833   1.726
   241.00    1.705   1.691   1.818   2.004   2.097   2.159   2.301   2.424   2.434   2.498   2.332   2.120   1.931   1.924   2.183   2.111   2.220   2.238   2.321   2.403   2.493   2.479   2.510   2.431   2.273   2.377   2.185   2.403   2.569   2.565   2.676   2.731   2.552   2.458   2.260   2.134   2.232   2.248   2.442   2.422   2.358   2.588   2.378   2.487   2.506   2.469   2.507   2.159   2.099   1.963   2.040   1.983   2.026   2.085   2.242   2.027   2.049   1.989   2.006   1.992   1.947   1.928   2.059   2.249   1.835   1.864   1.997   2.051   1.939   1.805   1.691   1.831   1.937
   236.00    1.715   1.770   1.923   1.972   2.160   2.068   2.178   2.313   2.315   2.359   2.388   2.267   2.164   2.122   2.441   2.301   2.318   2.409   2.475   2.570   2.688   2.828   2.758   2.493   2.400   2.468   2.322   2.448   2.565   2.763   2.835   2.856   2.636   2.532   2.382   2.222   2.370   2.474   2.338   2.537   2.411   2.465   2.456   2.582   2.654   2.642   2.667   2.309   2.247   2.031   1.953   2.089   2.220   2.151   2.180   2.143   2.275   2.207   1.974   1.918   1.997   1.948   2.046   2.080   1.925   1.897   1.945   2.071   2.112   2.002   1.894   1.994   1.905
   231.00    1.671   1.908   1.824   2.041   2.010   1.967   2.086   2.237   2.291   2.350   2.416   2.368   2.238   2.063   2.330   2.368   2.495   2.519   2.592   2.675   2.544   2.545   2.526   2.631   2.420   2.334   2.369   2.340   2.495   2.787   2.931   2.938   2.761   2.476   2.583   2.269   2.287   2.471   2.517   2.535   2.626   2.463   2.483   2.545   2.535   2.497   2.465   2.475   2.291   2.217   2.180   2.370   2.305   2.228   2.200   2.204   2.181   2.020   2.042   1.963   1.899   1.932   2.085   1.992   1.929   2.022   2.024   2.234   2.200   1.943   2.045   2.096   2.179
   226.00    1.795   1.874   1.843   2.018   2.031   2.035   2.097   2.253   2.073   2.295   2.432   2.248   2.224   2.217   2.199   2.299   2.383   2.409   2.531   2.564   2.467   2.530   2.351   2.539   2.619   2.366   2.333   2.270   2.540   2.665   2.887   2.842   2.769   2.726   2.549   2.439   2.375   2.426   2.708   2.549   2.518   2.588   2.620   2.329   2.443   2.443   2.511   2.500   2.401   2.338   2.526   2.498   2.428   2.198   2.122   2.174   2.105   2.073   2.101   2.085   2.158   2.027   1.971   1.949   1.874   1.924   2.159   2.286   2.335   2.095   2.084   1.991   2.136
   221.00    1.752   1.666   1.875   1.866   1.953   1.851   2.037   2.051   2.040   2.262   2.280   2.348   2.357   2.249   2.338   2.239   2.329   2.455   2.322   2.437   2.336   2.462   2.542   2.627   2.485   2.390   2.429   2.559   2.735   2.745   2.824   2.788   2.688   2.575   2.310   2.383   2.307   2.387   2.669   2.716   2.523   2.392   2.339   2.288   2.579   2.528   2.428   2.616   2.531   2.517   2.571   2.650   2.424   2.309   2.160   2.200   2.150   2.045   2.067   2.051   2.198   2.163   2.049   1.936   1.902   1.932   2.073   2.052   2.241   2.177   2.314   2.176   2.130
   216.00    1.684   1.700   1.804   1.982   1.899   1.960   1.924   2.023   1.985   2.093   2.207   2.018   2.090   2.210   2.482   2.403   2.451   2.443   2.426   2.323   2.303   2.470   2.653   2.581   2.524   2.420   2.237   2.473   2.747   2.557   2.648   2.672   2.447   2.527   2.384   2.228   2.400   2.432   2.624   2.491   2.601   2.379   2.562   2.283   2.449   2.545   2.538   2.543   2.636   2.568   2.542   2.447   2.473   2.330   2.138   2.184   2.138   2.083   2.107   2.152   2.139   2.335   2.068   2.055   2.027   1.984   2.072   2.005   2.049   2.214   2.300   2.308   2.306
   211.00    1.760   1.656   1.864   2.054   2.080   2.112   1.929   1.923   2.002   2.113   1.968   2.005   2.190   2.379   2.527   2.457   2.591   2.520   2.337   2.292   2.302   2.536   2.664   2.560   2.480   2.406   2.410   2.516   2.681   2.828   2.596   2.544   2.563   2.466   2.454   2.164   2.149   2.438   2.475   2.449   2.429   2.448   2.468   2.478   2.333   2.486   2.449   2.515   2.629   2.722   2.568   2.386   2.089   2.338   2.289   2.181   2.223   2.035   2.057   2.014   1.983   2.312   2.206   2.217   2.001   1.992   2.087   2.021   2.002   2.104   2.257   2.324   2.303
   206.00    1.837   1.821   1.908   2.109   2.206   2.189   2.064   1.991   2.073   2.165   2.034   2.235   2.092   2.370   2.456   2.480   2.334   2.459   2.235   2.517   2.365   2.475   2.638   2.675   2.638   2.684   2.481   2.425   2.648   2.670   2.490   2.611   2.521   2.582   2.425   2.324   2.456   2.402   2.292   2.250   2.259   2.246   2.498   2.369   2.464   2.360   2.567   2.482   2.614   2.757   2.550   2.391   2.334   2.234   2.260   2.215   2.057   2.064   1.991   2.035   2.197   2.343   2.179   2.203   2.028   1.832   1.966   2.055   2.005   2.023   2.078   2.070   2.213
   201.00    1.783   1.916   1.941   2.073   2.038   2.082   2.087   2.282   2.164   2.150   2.239   2.229   2.279   2.389   2.565   2.568   2.244   2.177   2.452   2.374   2.460   2.554   2.658   2.607   2.557   2.652   2.594   2.669   2.581   2.440   2.448   2.476   2.426   2.443   2.451   2.317   2.230   2.257   2.249   2.371   2.278   2.140   2.205   2.344   2.382   2.426   2.598   2.727   2.743   2.608   2.580   2.386   2.446   2.091   2.122   2.156   2.105   2.074   2.108   2.097   2.237   2.305   2.242   2.185   1.995   2.034   2.037   1.926   1.977   1.941   2.025   1.953   2.099
   196.00    1.832   1.918   1.941   2.066   2.084   2.092   2.182   2.079   2.237   2.204   2.169   2.144   2.273   2.534   2.466   2.416   2.220   2.063   2.254   2.358   2.497   2.578   2.643   2.515   2.518   2.539   2.548   2.554   2.499   2.637   2.446   2.377   2.288   2.416   2.276   2.335   2.172   2.241   2.168   2.159   2.305   2.079   2.287   2.410   2.571   2.399   2.626   2.692   2.736   2.632   2.553   2.353   2.287   2.210   2.199   2.170   2.089   2.177   2.100   2.012   2.041   2.171   2.117   2.162   2.120   1.983   2.013   2.014   1.970   1.879   1.806   2.048   2.126
   191.00    1.831   1.892   1.909   1.976   1.903   1.992   2.014   2.074   2.214   2.077   2.065   2.166   2.248   2.464   2.607   2.501   2.199   2.279   2.207   2.344   2.462   2.479   2.381   2.352   2.462   2.338   2.360   2.391   2.581   2.398   2.407   2.530   2.463   2.424   2.512   2.594   2.388   2.178   2.203   2.178   2.175   2.238   2.097   2.337   2.576   2.631   2.602   2.586   2.526   2.505   2.413   2.473   2.337   2.244   2.407   2.371   2.111   2.277   2.105   2.190   2.239   2.431   2.250   2.017   1.965   1.893   1.949   1.919   1.989   1.866   2.015   2.024   2.150
   186.00    1.811   1.868   1.806   1.798   1.930   1.973   2.066   2.084   2.152   2.082   2.085   2.136   2.278   2.247   2.444   2.566   2.237   2.299   2.443   2.350   2.486   2.339   2.543   2.319   2.267   2.271   2.316   2.400   2.387   2.298   2.423   2.476   2.585   2.595   2.430   2.395   2.387   2.204   2.290   2.350   2.218   2.224   2.178   2.280   2.456   2.540   2.461   2.560   2.653   2.527   2.546   2.496   2.327   2.291   2.172   2.402   2.336   2.118   2.151   2.225   2.397   2.286   2.159   2.042   1.791   1.790   1.870   1.765   1.881   1.912   1.903   1.958   2.086
   181.00    1.718   1.661   1.857   1.934   1.929   2.042   2.141   2.139   2.008   2.068   1.941   2.087   2.304   2.068   2.226   2.384   2.330   2.371   2.395   2.352   2.363   2.412   2.539   2.312   2.162   2.088   2.251   2.271   2.330   2.336   2.352   2.371   2.533   2.460   2.502   2.230   2.110   2.122   2.182   2.393   2.309   2.339   2.235   2.189   2.264   2.484   2.517   2.650   2.518   2.560   2.555   2.408   2.308   2.289   2.238   2.223   2.286   2.284   2.036   2.035   2.239   2.395   2.221   2.249   1.848   1.749   1.824   1.725   1.693   1.782   1.982   1.956   2.077
   176.00    1.780   1.893   1.961   1.936   1.991   2.058   2.188   2.077   2.049   1.946   1.905   1.838   2.126   2.155   2.045   2.224   2.453   2.523   2.488   2.352   2.337   2.456   2.481   2.329   2.072   2.080   2.200   2.043   2.088   2.240   2.353   2.335   2.341   2.420   2.216   2.301   2.260   2.195   2.312   2.286   2.314   2.441   2.521   2.374   2.374   2.487   2.476   2.641   2.512   2.393   2.511   2.409   2.354   2.372   2.168   1.986   2.065   2.015   2.083   2.105   2.203   2.299   2.309   2.304   1.898   1.764   1.957   1.809   1.784   1.724   1.780   1.873   1.986
   171.00    1.870   2.067   2.098   2.012   2.029   2.029   2.097   2.211   2.049   1.837   1.893   1.932   1.929   2.078   2.167   2.219   2.470   2.348   2.305   2.303   2.324   2.402   2.364   2.277   2.118   2.105   2.115   2.159   2.076   2.266   2.251   2.325   2.387   2.345   2.174   2.133   2.332   2.241   2.329   2.400   2.288   2.414   2.314   2.344   2.466   2.476   2.580   2.551   2.499   2.463   2.358   2.383   2.455   2.289   2.236   2.091   2.214   2.060   2.032   2.053   2.074   2.229   2.239   2.210   2.043   2.011   2.037   1.790   1.753   1.722   1.777   1.786   1.963
   166.00    2.020   1.876   2.014   2.070   1.919   1.990   2.147   2.041   2.007   1.948   1.940   2.032   2.056   1.977   2.052   2.082   2.130   2.287   2.284   2.161   2.185   2.106   2.143   1.982   1.981   1.973   2.146   2.017   2.008   1.990   2.100   2.296   2.279   2.191   2.105   2.131   2.167   2.228   2.264   2.416   2.392   2.541   2.677   2.382   2.334   2.471   2.527   2.491   2.387   2.269   2.369   2.305   2.409   2.299   2.083   2.076   2.155   2.132   2.105   2.087   2.108   2.168   2.240   2.126   2.223   2.108   1.939   1.889   1.775   1.685   1.773   1.759   1.918
   161.00    1.986   1.848   1.938   1.929   1.929   2.034   1.987   1.897   1.885   1.837   1.958   1.949   2.043   2.100   2.069   2.020   2.072   2.269   2.300   2.196   2.029   1.945   2.060   2.049   1.897   1.971   2.159   2.118   1.997   2.074   2.118   2.241   2.307   2.139   2.129   2.094   2.093   1.917   2.091   2.172   2.283   2.450   2.450   2.466   2.439   2.368   2.303   2.338   2.373   2.340   2.458   2.489   2.515   2.440   2.300   2.169   2.030   2.135   2.109   2.117   2.246   2.123   2.051   2.185   2.247   1.999   2.116   1.947   1.878   1.722   1.733   1.757   1.906
   156.00    1.991   1.969   1.901   1.788   1.825   1.992   1.982   2.109   2.032   1.976   1.864   1.846   1.704   1.956   2.172   2.002   2.118   2.074   2.256   2.014   2.048   1.951   2.033   1.923   2.003   2.058   2.150   2.169   2.077   2.005   2.114   2.077   2.056   1.974   1.960   1.924   2.203   2.004   1.985   2.156   2.135   2.226   2.352   2.331   2.356   2.348   2.408   2.247   2.235   2.363   2.288   2.391   2.442   2.273   2.090   2.126   2.169   2.261   2.278   2.323   2.237   2.213   1.983   2.012   2.173   2.200   2.138   2.083   1.928   1.862   1.909   1.852   1.974
   151.00    1.937   1.920   1.818   1.862   1.956   1.914   1.997   2.075   2.011   2.008   1.943   1.813   1.734   1.838   2.053   1.926   2.082   2.062   2.265   2.012   2.070   1.985   2.051   1.948   1.922   1.994   2.076   1.973   1.974   1.929   1.988   2.151   1.974   2.013   2.104   2.091   2.062   2.083   2.063   2.002   2.147   2.289   2.395   2.412   2.481   2.388   2.318   2.198   2.253   2.278   2.383   2.466   2.529   2.268   2.011   2.049   2.267   2.234   2.346   2.268   2.180   2.152   2.127   2.082   2.146   2.177   2.215   2.080   1.729   1.667   1.824   1.867   1.890
   146.00    1.752   1.784   1.834   1.969   1.913   1.800   1.911   1.950   1.884   1.875   1.852   1.800   1.746   1.847   1.892   1.896   2.103   2.193   2.215   2.130   2.119   2.085   2.118   2.031   1.915   1.842   1.992   1.941   1.972   1.880   1.936   1.968   1.941   2.024   2.192   2.160   2.042   1.968   2.027   2.044   2.344   2.460   2.480   2.430   2.296   2.209   2.209   2.186   2.266   2.257   2.410   2.436   2.485   2.487   2.487   2.203   2.213   2.431   2.379   2.292   2.163   2.174   2.179   2.047   2.039   2.052   2.109   2.066   1.766   1.822   1.733   1.889   1.971
   141.00    1.799   1.861   1.830   1.888   1.919   1.856   1.995   2.033   1.986   1.895   1.828   2.001   1.940   1.879   2.126   1.980   2.067   2.168   2.258   2.180   2.121   2.325   2.224   2.068   1.896   1.873   2.036   2.161   2.097   1.987   1.961   1.952   1.985   2.016   2.139   2.106   1.999   2.089   2.027   2.046   2.157   2.308   2.478   2.644   2.280   2.344   2.398   2.234   2.331   2.267   2.417   2.222   2.326   2.356   2.473   2.349   2.161   2.467   2.492   2.205   1.881   1.996   2.113   2.120   2.067   2.148   2.204   2.240   2.005   1.960   1.962   1.839   1.760
   136.00    1.954   1.888   1.912   1.982   1.856   1.960   2.004   1.976   1.880   1.940   1.887   2.016   1.802   1.902   1.918   2.159   2.170   2.086   2.275   2.369   2.346   2.270   2.238   2.160   1.948   1.984   2.130   1.957   1.975   1.884   2.003   1.880   2.047   2.165   2.157   2.011   2.013   2.041   2.149   2.135   2.390   2.171   2.360   2.458   2.331   2.185   2.305   2.336   2.331   2.385   2.473   2.338   2.262   2.299   2.398   2.392   2.404   2.377   2.318   2.173   2.033   1.925   2.091   2.123   2.069   2.203   2.237   2.254   2.005   2.086   2.031   2.028   1.949
   131.00    1.955   2.025   2.037   2.014   2.034   1.946   2.017   2.116   2.006   2.090   2.019   1.949   2.052   1.945   2.043   2.128   2.186   2.306   2.384   2.422   2.257   2.259   2.327   2.111   1.984   2.052   2.121   1.924   1.958   1.942   1.891   1.884   1.883   2.054   2.094   1.974   2.027   1.934   2.039   2.082   2.225   2.433   2.447   2.267   2.347   2.208   2.366   2.604   2.518   2.398   2.310   2.266   2.315   2.388   2.641   2.515   2.363   2.320   2.149   2.085   1.951   2.031   2.097   1.980   2.168   2.134   2.043   2.008   2.046   2.094   2.140   2.162   2.044
   126.00    1.945   1.975   1.986   1.923   1.983   1.929   2.099   2.092   2.143   1.932   1.993   2.034   1.955   1.945   1.929   2.025   2.173   2.211   2.252   2.277   2.253   2.274   2.168   2.046   1.996   2.051   2.183   1.966   2.035   2.042   2.027   1.970   1.979   2.067   2.262   2.103   2.052   2.059   2.164   2.231   2.240   2.308   2.481   2.572   2.454   2.510   2.447   2.511   2.573   2.456   2.386   2.219   2.314   2.295   2.472   2.381   2.232   2.319   2.070   2.229   1.940   2.034   1.949   1.978   2.088   2.034   2.061   2.096   2.095   2.185   2.229   2.222   2.300
   121.00    1.973   1.989   1.988   1.966   1.881   2.026   2.113   2.089   2.054   1.948   2.083   2.055   2.025   1.937   1.934   2.064   2.102   2.118   2.169   2.264   2.210   2.186   2.150   2.159   1.973   1.985   1.947   2.132   2.092   2.189   2.110   2.034   1.973   2.012   2.261   2.217   2.150   2.195   2.151   1.967   2.150   2.161   2.254   2.236   2.242   2.426   2.575   2.645   2.595   2.558   2.442   2.434   2.268   2.403   2.466   2.289   2.287   2.236   2.243   2.246   2.252   2.230   2.047   1.951   1.973   2.056   2.050   2.048   2.165   2.341   2.389   2.289   2.302
   116.00    1.922   2.003   1.842   1.911   1.874   2.006   1.983   1.929   1.961   1.989   2.004   2.101   2.131   2.035   2.110   2.206   2.004   2.223   2.131   2.173   2.274   2.243   2.110   2.037   2.008   1.952   1.952   2.042   2.113   2.191   2.253   2.081   2.119   2.232   2.232   2.236   2.226   2.161   2.201   2.026   2.017   2.205   2.204   2.330   2.320   2.449   2.649   2.463   2.502   2.440   2.426   2.530   2.436   2.484   2.481   2.321   2.339   2.403   2.312   2.127   2.204   2.168   2.052   1.981   2.021   1.968   2.040   2.096   2.318   2.446   2.461   2.311   2.394
   111.00    1.967   2.072   2.066   1.911   1.958   1.990   1.901   1.872   1.954   1.918   1.914   2.040   2.348   2.309   2.263   2.176   2.039   2.202   2.262   2.179   2.274   2.232   2.096   1.848   1.864   2.036   2.057   2.099   2.289   2.324   2.268   2.246   2.109   2.195   2.205   2.161   2.156   2.138   2.077   1.988   1.957   2.229   2.304   2.306   2.361   2.324   2.605   2.497   2.342   2.292   2.492   2.523   2.360   2.519   2.484   2.441   2.525   2.568   2.319   2.296   2.325   2.270   2.055   2.029   2.004   2.193   1.959   2.178   2.288   2.277   2.471   2.457   2.356
   106.00    1.990   2.073   2.015   1.926   2.001   2.024   1.886   2.034   1.936   1.866   1.914   2.031   2.201   2.256   2.328   2.103   1.998   2.237   2.372   2.211   2.210   2.182   2.204   1.915   1.854   2.039   2.110   2.184   2.328   2.276   2.444   2.271   2.339   2.132   2.076   2.256   2.095   1.982   2.107   1.911   2.003   2.267   2.310   2.298   2.222   2.428   2.395   2.465   2.323   2.296   2.500   2.539   2.289   2.398   2.491   2.388   2.534   2.463   2.474   2.387   2.459   2.359   2.112   2.095   2.062   2.206   2.072   2.159   2.149   2.215   2.370   2.392   2.278
   101.00    1.986   2.123   2.060   2.142   2.097   1.923   1.996   1.967   1.870   1.868   1.924   2.021   2.206   2.233   2.184   2.156   1.941   2.107   2.235   2.364   2.340   2.121   1.995   1.856   1.916   2.071   2.135   2.230   2.298   2.245   2.211   2.259   2.248   2.134   2.192   2.177   2.240   2.041   1.993   1.944   1.992   2.300   2.264   2.289   2.280   2.284   2.214   2.210   2.219   2.331   2.512   2.496   2.363   2.324   2.442   2.389   2.399   2.260   2.440   2.430   2.556   2.432   2.319   2.155   2.049   2.178   2.272   2.171   2.037   2.184   2.223   2.311   2.171
    96.00    2.174   2.247   2.042   2.021   1.977   1.884   1.877   1.968   2.088   1.998   1.955   2.008   2.136   2.288   2.211   2.115   2.004   2.049   2.195   2.171   2.218   2.229   1.836   1.788   1.901   2.073   2.064   2.267   2.375   2.336   2.306   2.347   2.108   2.238   2.181   2.174   2.314   2.246   2.129   2.077   2.185   2.272   2.241   2.294   2.226   2.160   2.141   2.163   2.245   2.401   2.392   2.443   2.295   2.447   2.370   2.267   2.319   2.304   2.433   2.420   2.526   2.509   2.315   2.216   2.141   2.240   2.207   2.057   2.068   2.098   2.195   2.183   2.288
    91.00    2.182   2.212   2.249   1.997   1.912   1.835   1.742   1.897   1.884   2.090   2.022   2.136   2.119   2.086   2.090   2.052   2.047   1.924   1.973   2.131   2.235   2.091   1.918   1.891   1.989   2.129   2.053   2.255   2.295   2.298   2.272   2.309   2.295   2.145   2.096   2.025   2.245   2.175   1.981   2.076   1.951   2.012   2.108   2.258   2.188   2.212   2.250   2.209   2.216   2.211   2.231   2.287   2.297   2.407   2.397   2.295   2.196   2.250   2.511   2.508   2.306   2.363   2.328   2.266   2.443   2.323   2.446   2.190   2.131   2.144   2.174   2.096   2.099
    86.00    2.194   2.100   2.165   2.060   1.965   1.942   1.834   1.822   1.821   2.001   2.025   2.012   2.054   2.008   1.981   1.951   1.961   2.065   1.936   2.044   2.003   2.148   2.146   1.885   1.958   2.064   2.103   2.158   2.326   2.337   2.231   2.174   2.259   1.999   2.022   1.910   2.235   2.227   2.088   1.894   2.062   1.955   2.077   2.151   2.114   2.207   2.200   2.233   2.169   2.290   2.239   2.379   2.441   2.414   2.519   2.560   2.402   2.434   2.444   2.528   2.391   2.437   2.320   2.258   2.225   2.140   2.294   2.225   1.993   2.035   2.091   2.118   2.026
    81.00    2.160   2.146   2.039   1.909   2.016   1.802   1.935   1.953   2.034   2.067   2.101   1.872   1.876   2.031   1.902   2.031   2.092   2.050   2.022   2.081   2.031   1.965   1.940   1.886   1.888   1.999   2.069   2.240   2.192   2.197   2.223   2.362   2.343   2.307   2.233   2.193   2.136   2.259   2.298   2.054   2.089   2.113   2.085   2.169   2.232   2.171   2.118   2.115   2.086   2.147   2.367   2.349   2.388   2.489   2.482   2.525   2.416   2.252   2.440   2.517   2.387   2.305   2.094   2.024   2.167   2.260   2.226   2.135   1.935   1.934   1.970   2.025   1.897
    76.00    1.983   2.029   2.004   1.871   1.888   1.872   1.890   2.039   1.963   1.929   1.847   1.881   1.893   2.066   2.042   2.191   2.205   2.212   1.957   2.033   1.908   2.048   1.984   1.776   1.842   1.853   1.961   2.257   2.122   2.352   2.207   2.354   2.435   2.394   2.377   2.202   2.311   2.292   2.287   2.246   2.197   2.261   2.102   2.133   2.193   2.228   2.141   2.091   2.051   2.131   2.336   2.426   2.411   2.581   2.590   2.461   2.457   2.276   2.320   2.367   2.107   2.166   2.094   2.029   2.091   2.028   2.123   1.977   2.076   1.912   1.894   2.028   1.858
    71.00    1.752   2.058   1.991   1.920   1.907   2.081   2.106   2.052   2.118   1.931   1.807   1.843   1.928   1.919   1.967   2.229   2.296   2.141   2.174   2.165   2.122   2.121   2.032   1.963   1.935   1.948   1.968   2.230   2.423   2.480   2.315   2.270   2.359   2.337   2.294   2.190   2.260   2.260   2.126   2.218   2.117   2.259   2.165   2.194   2.212   2.241   2.270   2.170   2.217   2.277   2.258   2.217   2.262   2.384   2.456   2.364   2.354   2.149   2.304   2.105   2.033   2.091   2.052   2.007   2.113   1.864   1.928   1.973   1.980   2.041   1.872   2.042   1.904
    66.00    1.829   1.989   1.824   1.967   1.869   2.004   2.027   2.113   1.915   2.001   1.864   1.847   1.870   1.930   1.936   2.201   2.240   2.190   2.391   2.293   2.272   2.329   2.207   2.026   1.900   1.829   2.053   2.302   2.396   2.422   2.285   2.461   2.342   2.475   2.299   2.146   2.138   2.113   2.300   2.194   2.043   2.117   2.207   2.174   2.230   2.165   2.110   2.028   2.164   2.265   2.232   2.058   2.117   2.216   2.126   2.176   2.252   2.238   2.259   2.133   2.113   2.167   2.110   2.174   2.018   1.968   1.928   1.902   1.879   1.829   1.914   1.936   1.991
    61.00    1.824   1.961   1.924   2.023   1.952   2.037   1.937   1.975   2.059   2.025   1.924   1.836   1.929   1.970   2.109   2.182   2.196   2.141   2.195   2.293   2.348   2.380   2.127   2.046   2.058   2.018   2.087   2.191   2.148   2.402   2.240   2.418   2.340   2.178   2.396   2.262   2.088   2.296   2.263   2.339   2.254   2.169   2.169   2.107   2.239   2.033   2.063   2.103   2.070   2.182   2.201   2.225   2.238   2.134   2.140   2.091   2.004   2.103   2.152   1.975   2.052   2.283   2.226   2.107   1.964   1.963   1.822   1.972   1.840   1.805   1.973   1.988   2.014
    56.00    1.855   1.979   2.032   1.910   2.051   2.104   2.033   1.984   2.016   1.992   1.960   1.907   1.889   2.019   2.165   2.216   2.180   1.989   2.113   2.228   2.298   2.239   2.250   2.040   2.063   2.092   2.019   2.190   2.339   2.491   2.380   2.249   2.270   2.208   2.272   2.221   2.365   2.434   2.349   2.296   2.246   2.304   2.053   2.097   2.101   1.978   1.989   2.094   2.012   1.890   2.166   2.141   2.140   2.109   2.188   2.213   2.086   2.024   2.058   2.016   2.009   2.177   2.211   2.236   2.003   1.989   2.033   1.875   1.857   1.970   1.971   1.981   1.986
    51.00    1.933   2.097   2.005   1.905   2.031   2.079   2.121   2.127   1.941   2.072   1.994   2.052   2.073   2.098   2.175   2.132   2.127   2.017   2.071   2.125   2.174   2.122   2.161   1.997   2.201   2.158   2.141   2.249   2.372   2.465   2.423   2.261   2.296   2.224   2.215   2.292   2.238   2.411   2.304   2.236   2.209   2.251   2.234   2.116   2.057   1.959   2.023   2.031   2.233   2.172   2.153   2.036   2.149   2.122   2.253   2.283   2.173   2.258   2.086   2.030   1.871   1.987   2.172   2.112   2.025   2.084   2.080   1.940   1.874   2.039   2.013   1.924   1.939
    46.00    1.954   1.920   1.987   1.937   2.034   2.021   2.146   2.052   2.072   2.041   2.054   1.954   2.159   2.026   2.112   1.904   1.976   2.118   2.036   2.072   2.069   2.254   2.336   2.176   2.259   2.238   2.295   2.436   2.353   2.446   2.222   2.231   2.108   2.025   2.067   2.166   2.064   2.230   2.377   2.301   2.159   2.234   2.204   2.152   2.180   2.178   2.132   2.087   2.214   2.252   2.223   2.239   2.188   2.173   2.283   2.312   2.079   2.078   2.218   2.119   1.972   1.995   2.042   2.038   2.120   2.108   1.985   1.886   1.964   1.816   1.930   1.767   1.904
    41.00    1.975   1.975   1.988   1.978   2.016   2.063   1.902   2.061   2.065   1.989   2.043   2.155   2.030   2.107   2.030   2.080   1.985   1.989   2.013   2.247   2.260   2.352   2.369   2.218   2.438   2.328   2.364   2.309   2.474   2.282   2.206   2.184   2.203   2.020   2.128   2.016   1.962   2.120   2.232   2.110   2.139   2.278   2.301   2.171   2.018   2.204   2.197   2.130   2.206   2.213   2.282   2.176   2.221   2.214   2.096   2.252   2.216   2.120   2.114   2.101   1.960   2.088   2.028   1.897   2.075   2.012   1.955   1.752   1.827   1.896   1.953   1.892   1.937
    36.00    2.128   2.121   2.086   2.164   2.087   2.070   2.005   2.071   1.961   2.126   2.072   2.103   2.057   2.094   1.999   1.987   1.987   2.009   2.244   2.294   2.396   2.261   2.247   2.358   2.355   2.380   2.261   2.257   2.430   2.328   2.309   2.330   2.459   2.317   2.204   2.076   2.070   2.166   2.294   2.205   2.230   2.171   2.111   2.000   2.075   2.211   2.036   2.148   2.165   2.264   2.150   2.139   2.190   2.269   2.007   2.030   2.100   2.085   2.078   2.065   2.034   2.004   1.978   1.790   1.806   2.020   1.854   1.828   1.843   1.906   1.929   1.934   1.962
    31.00    2.213   2.109   2.089   2.133   2.177   2.082   2.037   2.104   2.114   2.033   2.189   2.100   2.088   2.009   1.934   1.978   1.984   2.109   2.333   2.223   2.422   2.268   2.231   2.273   2.398   2.482   2.214   2.245   2.266   2.306   2.348   2.221   2.235   2.063   2.146   2.138   2.165   2.154   2.299   2.187   2.108   2.179   2.059   1.990   2.066   2.070   2.270   2.301   2.270   2.195   2.181   2.208   2.200   2.092   2.049   2.123   2.083   2.222   2.104   2.156   2.251   2.020   2.025   1.812   1.883   1.943   1.854   2.048   2.043   1.989   1.932   2.113   2.020
    26.00    2.313   2.320   2.242   2.181   2.221   2.224   2.189   1.965   1.981   2.004   2.078   2.155   1.957   1.942   1.830   1.941   2.001   2.069   2.316   2.178   2.343   2.254   2.273   2.427   2.298   2.410   2.286   2.321   2.263   2.171   2.173   2.230   2.139   2.158   2.131   2.126   2.255   2.278   2.156   2.178   2.259   2.133   2.070   2.141   2.079   2.081   2.205   2.229   2.114   2.295   2.364   2.214   2.316   2.296   2.330   2.265   2.372   2.225   2.368   2.079   2.112   2.178   1.984   1.815   1.872   2.041   1.976   2.179   2.094   2.021   2.108   2.108   2.078
    21.00    2.172   2.189   2.271   2.214   2.320   2.226   2.216   2.022   1.877   1.925   2.025   1.933   1.893   1.822   1.840   1.951   2.007   2.161   2.233   2.176   2.156   2.294   2.307   2.340   2.288   2.427   2.378   2.169   2.288   2.404   2.234   2.110   2.219   2.310   2.093   2.155   2.223   2.116   2.137   2.269   2.092   2.127   2.110   2.148   2.115   2.075   2.156   2.104   2.138   2.052   2.329   2.247   2.372   2.499   2.399   2.108   2.122   2.163   2.323   2.128   2.237   2.228   2.078   2.051   2.105   2.206   1.946   2.102   1.998   2.067   2.171   1.989   1.984
    16.00    2.115   2.053   2.096   2.120   2.182   2.180   2.161   2.099   1.964   1.839   1.903   1.792   1.705   1.719   1.791   1.896   2.068   2.036   2.023   2.269   2.058   2.191   2.181   2.455   2.383   2.440   2.307   2.283   2.148   2.288   2.327   1.950   2.009   2.079   2.289   2.196   2.241   2.205   2.224   2.272   2.143   1.999   1.901   2.100   2.195   2.249   2.365   2.156   2.153   2.079   2.320   2.500   2.615   2.493   2.405   2.169   2.261   2.272   2.279   2.177   2.279   2.220   2.144   2.181   2.282   2.167   2.131   2.057   2.145   2.194   2.322   2.074   2.006
    11.00    1.991   1.961   2.011   2.189   2.173   2.232   2.240   2.130   1.946   1.837   1.730   1.751   1.725   1.689   1.883   1.906   1.949   2.141   2.008   2.087   2.160   2.217   2.227   2.425   2.436   2.483   2.403   2.364   2.219   2.256   2.068   2.125   1.879   1.917   2.146   2.165   2.108   2.127   2.204   1.966   2.044   1.993   1.941   2.239   2.355   2.199   2.287   2.167   2.195   2.166   2.304   2.473   2.350   2.499   2.508   2.312   2.402   2.446   2.549   2.413   2.324   2.416   2.127   2.329   2.362   2.431   2.305   2.288   2.158   2.287   2.244   2.152   2.224
     6.00    2.266   2.062   2.013   2.104   2.158   2.253   2.269   2.030   1.875   1.818   1.821   1.862   1.719   1.845   1.840   2.009   2.004   2.102   1.978   2.097   2.128   2.262   2.312   2.335   2.375   2.425   2.285   2.227   2.328   2.188   2.102   1.897   2.004   1.970   1.982   2.035   1.949   2.043   2.164   2.092   2.032   1.957   2.105   2.169   2.231   2.110   2.039   2.166   2.336   2.292   2.344   2.442   2.465   2.497   2.436   2.263   2.381   2.386   2.411   2.468   2.473   2.406   2.317   2.416   2.489   2.380   2.369   2.352   2.310   2.404   2.262   2.325   2.477
     1.00    2.191   2.161   2.051   2.007   2.003   1.998   2.109   2.016   1.982   1.926   1.962   2.011   1.813   1.876   1.833   1.921   2.015   2.061   2.218   2.194   2.255   2.147   2.215   2.259   2.334   2.529   2.647   2.447   2.258   2.326   2.166   1.893   1.894   1.934   1.907   2.012   2.123   2.162   2.138   2.125   2.061   1.959   1.998   2.031   2.158   2.231   2.148   2.294   2.268   2.158   2.343   2.391   2.297   2.301   2.319   2.229   2.207   2.265   2.154   2.320   2.345   2.401   2.458   2.423   2.369   2.459   2.458   2.383   2.437   2.392   2.441   2.394   2.357

   Height   Standard deviation at grid points for the v component:
   301.00    1.979   1.979   1.865   1.898   1.912   1.879   1.849   1.835   1.818   1.859   1.876   1.932   1.860   1.964   2.002   2.051   1.899   1.965   1.959   1.858   1.902   1.874   1.797   1.874   1.769   1.688   1.818   1.898   1.921   1.852   1.709   1.839   1.775   1.824   1.758   1.687   1.754   1.724   1.692   1.575   1.634   1.645   1.709   1.716   1.757   1.868   1.739   1.769   1.801   1.699   1.656   1.729   1.708   1.763   1.693   1.655   1.627   1.691   1.852   1.780   1.742   1.713   1.653   1.627   1.667   1.665   1.705   1.777   1.766   1.812   1.745   1.758   1.718
   296.00    2.018   1.921   1.900   1.932   1.858   1.804   1.815   1.805   1.682   1.812   1.849   1.943   1.939   1.946   2.001   2.057   1.915   1.900   1.911   1.905   1.802   1.853   1.813   1.710   1.728   1.797   1.765   1.913   1.817   1.785   1.710   1.756   1.791   1.794   1.740   1.575   1.690   1.738   1.762   1.684   1.707   1.767   1.742   1.771   1.696   1.695   1.690   1.830   1.787   1.732   1.636   1.662   1.585   1.648   1.723   1.663   1.660   1.707   1.768   1.724   1.777   1.662   1.708   1.718   1.729   1.683   1.725   1.773   1.769   1.750   1.736   1.681   1.604
   291.00    2.044   1.999   1.911   1.936   1.946   1.945   1.979   1.890   1.909   1.856   1.909   1.976   1.937   1.986   2.018   2.082   2.024   1.962   1.967   1.862   1.901   1.835   1.783   1.664   1.815   1.981   1.893   1.801   1.783   1.855   1.868   1.743   1.870   1.852   1.770   1.732   1.726   1.796   1.661   1.758   1.683   1.756   1.728   1.721   1.622   1.526   1.600   1.683   1.686   1.711   1.523   1.506   1.566   1.613   1.679   1.699   1.716   1.748   1.839   1.753   1.728   1.729   1.821   1.697   1.707   1.736   1.634   1.661   1.721   1.765   1.864   1.774   1.751
   286.00    2.010   2.051   1.944   1.965   2.057   2.028   1.948   1.895   1.878   2.060   2.053   2.063   1.969   1.903   1.996   1.991   1.959   1.917   2.014   1.967   2.001   1.820   1.849   1.840   1.843   1.908   1.993   1.869   1.819   1.944   1.933   1.879   1.955   1.942   1.787   1.767   1.757   1.744   1.782   1.704   1.664   1.624   1.714   1.712   1.618   1.531   1.532   1.582   1.688   1.722   1.569   1.535   1.526   1.606   1.675   1.694   1.650   1.744   1.821   1.895   1.814   1.714   1.674   1.808   1.819   1.815   1.748   1.715   1.863   1.889   1.840   1.877   1.918
   281.00    1.890   1.926   1.965   1.826   1.885   1.988   2.059   2.066   1.902   2.003   2.011   2.039   1.969   2.024   1.976   1.919   1.848   1.926   1.918   1.974   1.920   1.807   1.829   1.760   1.870   2.006   1.897   1.895   1.972   1.917   1.883   1.845   1.843   1.895   1.744   1.741   1.702   1.734   1.673   1.648   1.608   1.582   1.699   1.661   1.633   1.546   1.541   1.566   1.745   1.719   1.575   1.554   1.543   1.597   1.671   1.703   1.620   1.710   1.832   1.906   1.803   1.630   1.667   1.799   1.780   1.785   1.743   1.859   1.892   1.799   1.902   1.827   1.995
   276.00    1.885   1.911   1.926   1.908   1.824   1.974   1.959   2.015   2.094   2.120   1.953   1.928   1.964   2.026   1.904   1.963   2.006   1.870   2.016   2.006   2.042   2.003   1.839   1.824   1.813   1.870   1.939   2.098   2.072   2.009   1.974   1.888   1.770   1.747   1.674   1.707   1.683   1.691   1.649   1.568   1.601   1.563   1.640   1.718   1.756   1.673   1.665   1.706   1.704   1.683   1.606   1.614   1.495   1.519   1.543   1.690   1.759   1.715   1.756   1.815   1.807   1.617   1.620   1.779   1.800   1.812   1.861   1.902   1.912   1.953   1.855   1.871   1.870
   271.00    1.777   1.866   1.961   1.940   1.863   1.924   1.993   2.000   2.017   2.055   1.916   1.938   1.814   1.958   1.962   2.017   1.958   1.980   2.004   2.057   2.121   2.051   1.946   1.757   1.769   1.907   1.932   1.998   2.000   2.052   2.091   1.845   1.822   1.716   1.738   1.788   1.935   1.820   1.816   1.619   1.721   1.664   1.607   1.599   1.604   1.697   1.617   1.622   1.631   1.581   1.591   1.625   1.580   1.605   1.681   1.752   1.817   1.643   1.634   1.677   1.620   1.686   1.718   1.759   1.928   1.823   1.833   1.830   1.901   1.992   1.892   1.834   1.759
   266.00    1.901   1.856   1.878   1.880   1.982   1.955   1.974   2.072   2.072   2.023   1.925   1.871   1.951   1.980   2.034   2.052   1.958   2.061   2.127   2.054   2.046   2.031   2.032   1.796   1.750   1.934   1.799   1.886   1.849   1.943   1.872   1.789   1.721   1.598   1.646   1.753   1.760   1.747   1.795   1.839   1.754   1.708   1.640   1.673   1.603   1.592   1.699   1.761   1.680   1.619   1.672   1.638   1.626   1.624   1.720   1.723   1.799   1.708   1.606   1.645   1.697   1.703   1.721   1.796   1.862   1.854   1.823   1.837   1.965   1.992   1.851   1.658   1.677
   261.00    1.871   1.867   1.900   1.840   1.876   1.975   1.905   2.069   2.038   2.015   1.941   1.923   2.108   2.144   2.107   2.106   2.034   2.061   1.932   2.099   2.017   2.063   1.983   1.951   1.784   1.864   1.914   1.919   1.859   1.926   1.848   1.871   1.808   1.848   1.841   1.786   1.730   1.776   1.807   1.880   1.634   1.648   1.597   1.605   1.632   1.711   1.678   1.716   1.676   1.579   1.629   1.653   1.715   1.657   1.724   1.696   1.710   1.730   1.617   1.641   1.652   1.622   1.700   1.708   1.865   1.934   1.895   1.802   1.915   1.860   1.827   1.781   1.791
   256.00    1.834   1.862   1.891   1.968   1.955   1.923   2.009   2.023   2.014   2.073   1.996   2.101   2.016   2.121   2.264   2.197   2.085   2.180   2.175   2.060   1.893   1.984   1.818   1.844   1.885   1.841   1.834   1.846   1.898   1.927   2.057   2.035   1.883   1.841   1.924   1.790   1.753   1.644   1.767   1.811   1.762   1.682   1.561   1.539   1.690   1.712   1.666   1.673   1.701   1.591   1.690   1.679   1.746   1.734   1.712   1.726   1.744   1.635   1.650   1.607   1.664   1.612   1.641   1.757   1.774   1.765   1.846   1.759   1.810   1.839   1.841   1.765   1.836
   251.00    1.791   1.794   1.884   1.812   1.871   1.967   2.025   2.022   2.101   2.037   1.965   1.979   1.898   2.073   2.218   2.226   2.064   2.111   2.119   1.936   1.908   1.946   1.856   1.884   1.898   1.897   1.806   1.796   1.873   1.946   2.073   2.005   1.861   1.866   1.865   1.834   1.734   1.768   1.912   1.826   1.727   1.697   1.575   1.691   1.712   1.770   1.719   1.662   1.712   1.686   1.755   1.718   1.790   1.748   1.728   1.732   1.652   1.664   1.536   1.598   1.649   1.680   1.704   1.756   1.818   1.772   1.714   1.706   1.694   1.747   1.744   1.841   1.919
   246.00    1.847   1.895   1.867   1.768   1.986   2.034   2.005   2.092   1.961   1.937   2.009   1.968   1.968   2.104   2.176   2.064   2.091   2.146   2.041   2.050   1.864   1.948   1.897   1.873   1.839   1.858   1.784   1.816   1.966   2.100   2.036   1.999   1.879   1.830   1.738   1.796   1.821   1.853   1.850   1.773   1.764   1.692   1.623   1.729   1.873   1.847   1.825   1.649   1.654   1.797   1.756   1.829   1.788   1.795   1.695   1.811   1.704   1.730   1.718   1.756   1.739   1.716   1.744   1.832   1.757   1.721   1.742   1.783   1.705   1.737   1.794   1.957   1.924
   241.00    1.947   1.883   1.878   1.806   1.893   1.830   1.961   2.140   2.060   1.987   1.912   1.927   1.883   2.063   2.051   2.025   1.951   1.966   2.002   1.874   1.837   1.746   1.888   1.791   1.706   1.707   1.769   1.879   1.914   1.946   2.040   1.889   1.818   1.773   1.659   1.813   1.880   1.914   1.826   1.746   1.691   1.688   1.709   1.718   1.755   1.837   1.767   1.741   1.756   1.685   1.830   1.916   1.917   1.903   1.823   1.932   1.854   1.746   1.715   1.803   1.762   1.734   1.744   1.776   1.760   1.681   1.778   1.660   1.705   1.769   1.801   1.918   1.832
   236.00    1.948   1.986   1.941   1.933   1.775   1.844   1.905   2.016   2.068   2.131   1.956   1.933   2.072   2.035   2.044   2.020   1.890   1.923   1.959   1.800   1.760   1.842   1.748   1.743   1.771   1.689   1.680   1.810   1.899   1.909   1.998   1.961   1.713   1.804   1.729   1.790   1.850   1.881   1.806   1.725   1.762   1.712   1.670   1.692   1.733   1.837   1.735   1.783   1.772   1.818   1.820   1.886   1.951   1.781   1.746   1.792   1.850   1.738   1.712   1.723   1.734   1.667   1.812   1.766   1.705   1.769   1.833   1.749   1.703   1.801   1.886   1.947   1.816
   231.00    1.881   1.872   1.942   1.957   1.820   1.911   1.804   1.948   2.007   1.932   2.025   1.950   1.911   2.053   1.984   1.979   1.778   1.780   1.775   1.734   1.747   1.760   1.751   1.781   1.735   1.617   1.711   1.853   1.837   1.827   1.938   1.904   1.804   1.715   1.816   1.827   1.858   1.777   1.752   1.619   1.708   1.752   1.727   1.773   1.767   1.807   1.812   1.767   1.782   1.745   1.749   1.749   1.730   1.767   1.710   1.700   1.739   1.761   1.655   1.655   1.618   1.656   1.624   1.785   1.756   1.754   1.809   1.791   1.718   1.739   1.801   1.773   1.689
   226.00    1.976   2.001   2.020   1.826   1.814   1.884   1.964   1.874   2.008   1.979   1.889   1.897   1.870   1.927   1.856   1.867   1.846   1.809   1.744   1.793   1.703   1.591   1.769   1.766   1.716   1.647   1.747   1.831   1.854   1.773   1.873   1.940   1.800   1.752   1.762   1.842   1.748   1.697   1.742   1.682   1.694   1.653   1.720   1.731   1.731   1.726   1.768   1.688   1.561   1.543   1.670   1.729   1.702   1.690   1.655   1.663   1.710   1.689   1.657   1.660   1.538   1.555   1.610   1.645   1.700   1.717   1.722   1.806   1.767   1.761   1.677   1.751   1.806
   221.00    1.887   1.926   1.991   1.885   1.881   1.962   1.911   2.039   2.042   1.930   1.990   1.856   1.830   1.908   1.782   1.704   1.723   1.750   1.662   1.668   1.645   1.673   1.742   1.697   1.679   1.723   1.874   1.885   1.844   1.844   1.854   1.872   1.871   1.878   1.720   1.753   1.829   1.766   1.753   1.689   1.674   1.730   1.738   1.829   1.779   1.690   1.627   1.621   1.564   1.542   1.530   1.682   1.659   1.614   1.622   1.730   1.668   1.779   1.782   1.700   1.694   1.652   1.577   1.564   1.642   1.747   1.820   1.778   1.780   1.763   1.754   1.786   1.837
   216.00    1.989   2.008   1.995   2.002   1.946   1.993   1.917   2.020   1.992   1.890   1.899   1.859   1.830   1.838   1.906   1.797   1.689   1.706   1.765   1.662   1.624   1.696   1.761   1.740   1.783   1.688   1.744   1.833   1.803   1.866   1.759   1.821   1.866   1.800   1.766   1.805   1.809   1.786   1.794   1.800   1.769   1.870   1.890   1.881   1.828   1.686   1.562   1.525   1.571   1.606   1.559   1.638   1.659   1.605   1.696   1.759   1.756   1.785   1.844   1.808   1.843   1.774   1.701   1.669   1.583   1.611   1.825   1.916   1.813   1.700   1.767   1.875   1.888
   211.00    2.014   2.019   2.118   2.087   2.081   2.045   1.884   1.873   1.848   1.843   1.787   1.809   1.847   1.861   1.788   1.750   1.684   1.718   1.644   1.608   1.617   1.608   1.638   1.734   1.787   1.660   1.708   1.777   1.758   1.857   1.700   1.779   1.786   1.778   1.699   1.788   1.724   1.822   1.866   1.871   1.902   1.907   1.774   1.827   1.662   1.610   1.509   1.508   1.550   1.613   1.589   1.606   1.707   1.699   1.845   1.827   1.838   1.699   1.794   1.788   1.798   1.763   1.780   1.742   1.703   1.685   1.803   1.868   1.913   1.858   1.774   1.748   1.874
   206.00    1.971   2.026   2.096   2.000   2.047   1.931   1.898   1.916   1.892   1.888   1.836   1.886   1.901   1.871   1.789   1.647   1.672   1.657   1.576   1.639   1.573   1.630   1.776   1.789   1.719   1.718   1.765   1.808   1.870   1.811   1.834   1.778   1.698   1.724   1.800   1.787   1.705   1.752   1.814   1.888   1.880   1.798   1.766   1.772   1.628   1.581   1.516   1.547   1.537   1.520   1.552   1.577   1.722   1.780   1.909   1.839   1.853   1.721   1.851   1.842   1.740   1.759   1.724   1.740   1.717   1.714   1.811   1.874   1.835   1.891   1.878   1.820   1.845
   201.00    1.859   1.950   1.956   1.939   1.961   1.959   2.002   1.856   1.907   1.865   1.835   1.893   1.935   1.866   1.742   1.734   1.707   1.675   1.638   1.599   1.625   1.669   1.823   1.830   1.816   1.840   1.766   1.769   1.801   1.764   1.710   1.689   1.719   1.722   1.767   1.752   1.690   1.697   1.751   1.824   1.742   1.751   1.755   1.788   1.611   1.497   1.527   1.582   1.595   1.531   1.586   1.652   1.679   1.835   1.802   1.848   1.776   1.713   1.798   1.815   1.697   1.639   1.664   1.662   1.701   1.732   1.812   1.874   1.845   1.808   1.844   1.787   1.954
   196.00    1.773   1.845   1.833   1.926   1.852   1.874   1.915   1.869   1.848   1.803   1.884   1.852   1.817   1.698   1.708   1.814   1.796   1.714   1.641   1.592   1.659   1.723   1.831   1.859   1.731   1.763   1.804   1.795   1.653   1.536   1.597   1.575   1.653   1.636   1.762   1.748   1.788   1.713   1.808   1.755   1.796   1.765   1.770   1.683   1.604   1.550   1.529   1.511   1.594   1.603   1.650   1.689   1.734   1.837   1.840   1.781   1.704   1.657   1.678   1.745   1.664   1.652   1.768   1.825   1.871   1.841   1.860   1.912   2.018   2.009   2.071   2.020   2.021
   191.00    1.822   1.781   1.839   1.822   1.892   1.834   1.793   1.754   1.746   1.868   1.864   1.737   1.677   1.759   1.757   1.886   1.805   1.675   1.683   1.628   1.643   1.679   1.745   1.800   1.866   1.775   1.733   1.734   1.767   1.658   1.593   1.712   1.768   1.624   1.695   1.660   1.720   1.779   1.817   1.755   1.753   1.674   1.669   1.599   1.584   1.554   1.494   1.459   1.571   1.709   1.744   1.692   1.702   1.758   1.922   1.851   1.691   1.741   1.689   1.689   1.656   1.764   1.866   1.916   1.865   1.922   1.975   1.899   2.013   2.088   2.012   2.019   2.024
   186.00    1.929   1.885   1.806   1.889   1.782   1.823   1.752   1.790   1.766   1.866   1.900   1.816   1.757   1.789   1.724   1.787   1.715   1.715   1.634   1.662   1.733   1.691   1.658   1.786   1.826   1.695   1.694   1.688   1.569   1.642   1.601   1.735   1.834   1.663   1.663   1.654   1.772   1.746   1.696   1.734   1.807   1.737   1.682   1.609   1.543   1.534   1.487   1.470   1.560   1.606   1.659   1.638   1.654   1.815   1.898   1.902   1.722   1.674   1.696   1.699   1.781   1.721   1.854   1.910   1.807   1.873   2.017   1.924   2.021   2.082   2.062   2.000   1.941
   181.00    1.754   1.881   1.895   1.780   1.814   1.803   1.855   1.759   1.740   1.714   1.758   1.743   1.766   1.752   1.711   1.769   1.723   1.747   1.717   1.730   1.730   1.718   1.766   1.766   1.758   1.619   1.612   1.580   1.590   1.670   1.588   1.673   1.675   1.718   1.675   1.624   1.665   1.758   1.779   1.674   1.817   1.815   1.671   1.667   1.672   1.657   1.645   1.651   1.658   1.625   1.554   1.621   1.680   1.757   1.762   1.787   1.741   1.760   1.807   1.701   1.826   1.800   1.941   1.830   1.840   1.787   1.894   1.984   2.063   2.165   2.105   2.073   2.065
   176.00    1.686   1.790   1.812   1.768   1.735   1.788   1.825   1.751   1.669   1.698   1.809   1.811   1.742   1.710   1.661   1.715   1.791   1.744   1.764   1.795   1.782   1.675   1.679   1.803   1.731   1.607   1.638   1.550   1.545   1.612   1.564   1.612   1.728   1.700   1.757   1.656   1.747   1.671   1.754   1.693   1.731   1.706   1.660   1.571   1.602   1.649   1.629   1.664   1.687   1.557   1.603   1.585   1.631   1.723   1.705   1.796   1.780   1.882   1.881   1.819   1.809   1.779   1.791   1.852   1.906   1.832   1.962   2.030   2.032   2.025   2.125   2.210   2.248
   171.00    1.708   1.675   1.748   1.719   1.749   1.850   1.708   1.771   1.703   1.750   1.704   1.807   1.849   1.648   1.722   1.812   1.779   1.776   1.842   1.856   1.839   1.809   1.798   1.809   1.677   1.639   1.578   1.658   1.649   1.593   1.563   1.687   1.661   1.675   1.759   1.830   1.812   1.737   1.752   1.704   1.796   1.767   1.749   1.527   1.593   1.623   1.715   1.684   1.669   1.611   1.672   1.531   1.579   1.716   1.786   1.824   1.810   1.947   1.922   1.917   1.800   1.718   1.811   1.795   1.778   1.927   1.892   1.912   2.078   1.984   2.072   2.167   2.151
   166.00    1.637   1.719   1.760   1.840   1.811   1.922   1.861   1.825   1.717   1.827   1.773   1.805   1.732   1.648   1.725   1.809   1.967   1.939   1.833   1.885   1.974   1.925   1.867   1.770   1.696   1.619   1.581   1.694   1.766   1.665   1.665   1.688   1.686   1.769   1.853   1.874   1.770   1.823   1.862   1.756   1.782   1.800   1.866   1.689   1.656   1.668   1.682   1.722   1.783   1.698   1.673   1.620   1.616   1.653   1.848   1.824   1.861   1.973   1.940   1.996   1.857   1.813   1.713   1.850   1.887   1.906   1.904   1.950   2.067   2.134   2.087   2.091   2.167
   161.00    1.763   1.720   1.806   1.871   1.750   1.826   1.798   1.802   1.776   1.768   1.725   1.785   1.731   1.764   1.822   1.851   1.823   1.878   1.813   1.913   1.898   1.898   1.940   1.790   1.726   1.715   1.698   1.754   1.739   1.691   1.714   1.717   1.863   1.748   1.826   1.840   1.822   1.848   1.835   1.872   1.870   1.793   1.878   1.704   1.691   1.778   1.703   1.677   1.699   1.716   1.853   1.790   1.658   1.726   1.874   2.014   1.950   1.962   2.000   2.023   2.061   1.998   1.883   1.859   1.918   1.868   1.852   1.994   2.060   2.149   2.096   1.991   2.201
   156.00    1.730   1.748   1.800   1.757   1.679   1.711   1.712   1.790   1.770   1.749   1.651   1.704   1.672   1.740   1.781   1.806   1.747   1.806   1.814   1.829   1.814   1.861   1.745   1.776   1.676   1.719   1.799   1.724   1.739   1.830   1.704   1.797   1.912   1.844   1.636   1.697   1.807   1.733   1.730   1.780   1.765   1.808   1.805   1.858   1.824   1.816   1.714   1.664   1.649   1.722   1.849   1.835   1.717   1.908   1.889   1.960   1.993   1.842   1.949   2.063   2.030   2.026   1.798   1.801   1.780   1.822   1.923   1.895   2.065   2.119   2.167   2.050   2.167
   151.00    1.727   1.769   1.810   1.755   1.742   1.690   1.701   1.725   1.848   1.801   1.752   1.746   1.659   1.797   1.843   1.900   1.826   1.834   1.856   1.826   1.809   1.764   1.813   1.699   1.717   1.714   1.808   1.863   1.821   1.766   1.746   1.799   1.822   1.731   1.649   1.635   1.660   1.629   1.616   1.629   1.630   1.727   1.837   1.946   1.935   1.799   1.720   1.727   1.737   1.895   1.890   1.759   1.743   1.853   2.018   2.056   1.977   1.999   2.034   2.241   2.055   2.010   1.963   1.902   1.727   1.790   1.751   1.854   2.004   2.031   2.020   1.968   2.047
   146.00    1.760   1.734   1.741   1.859   1.758   1.657   1.729   1.716   1.749   1.778   1.753   1.635   1.684   1.767   1.732   1.893   1.918   2.009   1.937   1.909   1.785   1.878   1.797   1.874   1.784   1.817   1.905   1.928   1.852   1.806   1.752   1.672   1.773   1.734   1.732   1.610   1.593   1.702   1.691   1.626   1.592   1.721   1.821   1.975   1.977   1.906   1.890   1.812   1.836   1.886   1.901   1.796   1.825   1.880   1.932   1.967   2.038   2.058   2.112   1.992   2.060   2.012   1.921   1.918   1.787   1.716   1.846   2.023   2.094   1.983   2.025   2.061   2.058
   141.00    1.762   1.720   1.883   1.901   1.807   1.688   1.706   1.679   1.703   1.797   1.777   1.688   1.700   1.781   1.822   1.877   1.958   2.047   2.041   1.935   1.972   1.870   1.934   1.931   1.902   1.787   1.817   1.836   1.746   1.679   1.680   1.735   1.841   1.779   1.730   1.661   1.676   1.701   1.747   1.698   1.744   1.881   2.015   2.057   2.154   2.080   1.947   1.911   1.926   1.836   1.812   1.837   1.969   1.999   1.903   1.957   1.961   2.075   2.057   2.103   1.993   1.953   1.872   1.815   1.840   1.844   1.941   1.958   2.077   2.051   2.033   2.148   2.124
   136.00    1.931   1.926   2.026   1.926   1.966   1.786   1.782   1.780   1.702   1.753   1.756   1.848   1.684   1.798   1.958   1.977   1.982   2.028   2.010   1.908   1.914   1.905   1.870   1.952   1.976   1.917   1.821   1.780   1.639   1.709   1.716   1.702   1.756   1.745   1.853   1.819   1.722   1.823   1.757   1.839   1.930   1.878   2.007   2.114   2.203   2.001   2.007   2.056   1.884   1.899   1.779   1.841   1.906   1.803   1.863   1.885   1.948   2.003   2.045   2.104   2.079   1.924   1.886   1.948   1.912   1.973   1.956   1.998   2.107   2.146   2.108   1.910   1.980
   131.00    2.131   2.059   2.163   2.057   2.091   1.915   1.792   1.752   1.737   1.808   1.788   1.810   1.885   1.905   1.916   2.003   2.102   1.995   2.003   1.916   1.883   1.793   1.921   1.869   1.877   1.835   1.762   1.745   1.631   1.688   1.688   1.718   1.701   1.756   1.802   1.862   1.767   1.820   1.785   1.927   1.964   1.884   1.973   2.024   2.067   2.118   2.202   1.987   1.920   1.795   1.886   1.925   1.911   1.978   2.021   1.936   1.871   1.994   2.084   2.028   2.149   2.069   1.833   1.794   1.947   2.064   1.966   1.920   2.052   2.066   1.953   2.013   1.949
   126.00    2.257   2.249   2.193   2.115   2.081   1.855   1.812   1.774   1.704   1.806   1.813   1.899   1.901   1.871   1.947   1.929   1.990   2.046   2.068   1.957   1.913   1.893   1.947   1.824   1.968   1.926   1.790   1.709   1.619   1.690   1.756   1.764   1.822   1.827   1.787   1.911   1.785   1.839   1.888   1.834   1.963   1.999   1.931   1.995   1.991   1.996   2.055   2.049   1.977   1.960   1.985   1.931   1.934   2.029   1.977   1.947   1.922   1.874   2.019   2.086   2.168   2.086   1.907   1.883   1.985   2.133   2.100   1.983   2.049   2.051   2.096   1.942   1.899
   121.00    2.233   2.239   2.257   2.130   2.003   1.856   1.869   1.871   1.796   1.899   1.937   1.902   1.933   1.894   2.021   2.008   1.990   1.957   1.910   1.856   1.934   1.886   1.814   1.908   1.988   1.920   1.856   1.663   1.691   1.704   1.734   1.807   1.732   1.758   1.828   1.847   1.816   1.895   1.897   1.920   1.902   1.991   1.907   2.107   2.081   2.047   2.103   1.961   2.022   1.924   1.868   1.874   1.949   1.983   1.942   1.981   2.023   1.948   1.952   1.937   1.996   1.932   1.932   1.942   2.027   2.058   1.938   2.074   2.000   1.969   2.021   1.995   1.886
   116.00    2.275   2.323   2.309   2.073   2.010   2.009   2.019   1.852   1.833   1.897   1.789   1.905   1.914   1.950   1.930   1.894   1.897   1.856   1.946   2.025   2.075   1.921   1.777   1.915   1.899   1.944   1.886   1.862   1.801   1.827   1.875   1.758   1.784   1.704   1.813   1.895   1.853   1.836   1.885   1.942   1.958   1.865   1.899   2.047   1.964   2.007   1.992   1.983   2.024   2.010   1.984   1.991   1.906   1.948   1.894   1.865   1.879   1.893   1.845   1.886   1.896   1.925   1.899   1.968   1.950   1.904   2.060   2.087   1.955   2.000   1.955   1.981   1.927
   111.00    2.162   2.252   2.086   2.029   2.105   2.022   1.966   1.919   1.810   1.788   1.770   1.834   1.944   1.895   1.971   1.887   1.911   1.853   1.859   1.987   2.015   1.896   1.927   1.783   1.919   1.990   1.955   1.818   1.721   1.793   1.758   1.802   1.777   1.747   1.812   1.834   1.823   1.814   1.789   1.921   1.933   1.865   1.947   2.071   1.966   1.960   1.951   1.936   1.980   1.966   1.869   1.927   1.870   1.794   1.748   1.792   1.766   1.838   1.802   1.817   1.927   1.925   1.918   1.917   1.925   1.909   1.921   2.100   2.018   1.993   1.865   1.900   2.067
   106.00    2.122   2.131   2.154   2.160   2.081   2.024   1.980   1.866   1.835   1.805   1.839   1.859   1.893   1.927   1.783   1.888   1.872   1.926   1.884   1.942   1.905   1.887   1.943   1.979   1.992   1.924   1.841   1.859   1.785   1.877   1.818   1.905   1.956   1.803   1.848   1.879   1.861   1.896   1.844   1.947   1.988   2.027   1.993   1.978   1.978   1.941   1.843   1.954   1.949   1.972   1.817   1.823   1.784   1.709   1.649   1.733   1.677   1.782   1.801   1.789   1.902   1.974   1.975   1.943   1.891   1.862   1.946   1.875   1.922   1.980   1.931   1.854   2.004
   101.00    2.095   2.091   2.036   2.041   2.065   1.905   1.952   1.911   1.839   1.950   1.918   1.809   1.859   1.857   1.815   1.934   1.806   1.783   1.792   1.773   1.983   1.848   1.925   1.993   1.943   1.951   1.877   1.751   1.743   1.741   1.842   1.897   1.817   1.853   1.879   1.871   1.863   1.908   1.988   1.819   1.956   1.996   1.988   1.890   1.944   2.033   1.971   1.975   1.949   1.875   1.954   1.778   1.708   1.769   1.767   1.585   1.699   1.756   1.859   1.875   1.966   1.992   1.960   1.796   1.775   1.786   1.888   1.965   1.860   1.882   1.984   2.008   2.064
    96.00    2.106   2.167   2.025   1.889   1.834   1.926   1.895   1.943   1.904   1.927   1.972   1.849   1.817   1.761   1.793   1.901   1.878   1.824   1.801   1.828   1.897   1.823   1.819   1.840   1.792   1.770   1.733   1.730   1.753   1.798   1.773   1.710   1.751   1.942   2.040   1.963   1.960   1.881   1.979   1.886   1.915   2.077   1.987   1.864   1.939   1.964   2.046   2.058   1.918   1.950   1.881   1.818   1.685   1.800   1.879   1.743   1.681   1.774   1.849   1.772   1.878   1.866   1.799   1.747   1.772   1.781   1.968   1.912   1.884   1.873   2.003   1.890   1.882
    91.00    2.120   2.075   1.896   1.878   1.924   1.862   1.992   1.917   1.881   1.956   2.024   1.860   1.714   1.797   1.849   1.843   1.797   1.751   1.888   1.852   1.830   1.809   1.860   1.904   1.924   1.781   1.748   1.743   1.759   1.743   1.709   1.743   1.742   1.857   2.002   1.949   1.918   2.018   2.035   1.943   2.004   1.982   2.003   1.927   1.939   1.999   2.077   2.031   2.018   1.942   1.877   1.823   1.808   1.722   1.758   1.699   1.638   1.774   1.890   1.929   1.950   1.890   1.876   1.869   1.797   1.775   1.899   1.958   1.852   1.916   1.882   1.861   1.799
    86.00    2.045   2.050   2.009   1.906   1.814   1.824   1.908   1.902   1.935   1.986   2.004   1.925   1.892   1.840   1.832   1.882   1.858   1.812   1.871   1.995   1.797   1.700   1.799   1.910   1.847   1.715   1.790   1.816   1.803   1.774   1.816   1.669   1.725   1.873   1.983   1.996   1.820   1.977   2.043   2.062   2.004   2.042   1.911   1.875   1.987   2.013   2.024   1.943   2.031   1.943   1.939   1.883   1.951   1.849   1.818   1.827   1.729   1.916   1.891   1.928   1.951   1.881   1.770   1.793   1.798   1.831   1.893   1.865   1.888   1.792   1.944   1.887   1.756
    81.00    2.090   2.035   2.039   1.956   1.931   1.842   1.895   1.873   2.014   1.982   2.016   1.935   1.897   1.941   2.002   1.984   1.856   1.828   1.882   2.014   2.002   1.783   1.761   1.830   1.911   1.871   1.824   1.920   1.896   1.885   1.786   1.865   1.859   1.883   1.832   1.940   1.878   1.943   2.025   2.024   1.962   2.077   2.089   2.003   1.859   2.059   2.012   1.973   1.981   1.942   1.958   1.920   1.861   1.927   1.794   1.821   1.803   1.824   1.927   1.907   1.794   1.859   1.852   1.776   1.702   1.820   1.748   1.736   1.837   1.784   1.809   1.848   1.785
    76.00    2.057   2.039   1.908   1.923   1.831   1.939   1.873   1.896   1.888   2.036   2.018   1.999   1.974   1.935   1.916   1.998   1.908   1.984   1.973   1.934   1.876   1.826   1.799   1.878   1.785   1.886   1.880   1.930   1.913   1.870   1.928   1.754   1.853   1.929   1.807   1.798   1.880   1.825   1.855   1.974   1.997   2.017   2.022   1.966   1.899   1.941   1.930   1.970   1.933   1.814   2.023   1.909   1.852   1.884   1.894   1.894   1.860   1.831   1.843   1.852   1.769   1.785   1.769   1.800   1.822   1.745   1.722   1.757   1.820   1.828   1.740   1.749   1.716
    71.00    2.058   1.955   2.002   1.910   1.923   2.037   1.938   1.914   1.976   1.913   2.048   2.066   2.075   2.011   1.872   1.961   1.896   1.815   2.047   2.057   1.876   1.853   1.921   1.885   1.865   1.748   1.791   1.872   1.912   1.947   1.941   1.881   1.877   1.794   1.702   1.750   1.887   1.847   1.805   1.885   1.907   1.903   1.952   1.917   1.823   1.832   1.778   1.797   1.898   1.896   1.829   1.846   1.833   1.928   1.953   1.919   1.989   1.887   1.823   1.854   1.800   1.734   1.796   1.775   1.775   1.670   1.646   1.751   1.783   1.775   1.711   1.664   1.682
    66.00    2.048   1.984   1.855   1.937   1.969   1.938   1.901   1.936   1.966   1.911   1.927   2.097   2.133   1.971   1.936   1.917   1.729   1.789   1.879   1.980   1.863   1.912   1.926   1.873   1.873   1.765   1.748   1.803   1.855   1.823   1.909   1.849   1.789   1.716   1.751   1.726   1.796   1.881   1.845   1.803   1.911   1.893   1.957   1.936   1.829   1.695   1.668   1.773   1.839   1.832   1.718   1.848   1.800   1.856   1.879   1.937   1.905   1.888   1.865   1.755   1.733   1.772   1.803   1.662   1.741   1.771   1.803   1.744   1.803   1.831   1.644   1.640   1.685
    61.00    1.997   2.019   1.973   1.886   1.980   1.908   1.870   1.771   1.896   1.959   1.882   1.989   2.068   1.980   1.983   1.912   1.761   1.777   1.798   1.783   1.939   1.917   1.845   1.899   1.779   1.746   1.686   1.757   1.801   1.849   1.894   1.830   1.764   1.745   1.707   1.754   1.828   1.819   1.776   1.832   1.838   1.891   1.852   1.777   1.711   1.801   1.727   1.684   1.799   1.746   1.743   1.746   1.743   1.831   1.913   1.935   2.041   1.943   1.948   1.893   1.852   1.844   1.793   1.721   1.667   1.668   1.708   1.697   1.712   1.728   1.715   1.742   1.674
    56.00    1.913   1.965   1.861   2.019   1.853   1.926   1.845   1.801   1.841   1.977   2.088   2.028   1.961   1.993   1.923   1.957   1.849   1.810   1.677   1.776   1.879   1.784   1.858   1.813   1.937   1.809   1.774   1.807   1.847   1.864   1.821   1.786   1.742   1.829   1.835   1.762   1.802   1.754   1.741   1.769   1.835   1.828   1.779   1.723   1.656   1.743   1.722   1.690   1.797   1.755   1.722   1.876   1.840   1.854   1.827   1.889   1.922   1.925   1.937   2.006   1.889   1.876   1.804   1.718   1.667   1.721   1.685   1.750   1.709   1.751   1.655   1.615   1.635
    51.00    1.970   1.952   1.854   1.871   1.911   1.834   1.885   1.871   1.863   2.017   2.077   2.090   2.030   2.047   2.052   2.021   1.894   1.854   1.781   1.723   1.893   1.891   1.850   1.822   1.823   1.755   1.791   1.846   1.990   1.896   1.793   1.787   1.815   1.758   1.773   1.821   1.772   1.831   1.810   1.849   1.787   1.792   1.717   1.725   1.641   1.593   1.633   1.702   1.681   1.698   1.846   1.925   1.879   1.857   1.885   1.846   1.821   1.952   1.911   1.928   1.840   1.890   1.772   1.739   1.638   1.669   1.777   1.750   1.689   1.586   1.689   1.672   1.738
[...]
   161.00    1.226   1.155   1.183   1.200   1.233   1.251   1.226   1.244   1.278   1.286   1.337   1.263   1.217   1.249   1.259   1.230   1.179   1.232   1.284   1.270   1.193   1.127   1.119   1.130   1.124   1.168   1.119   1.087   1.166   1.133   1.163   1.160   1.179   1.179   1.216   1.267   1.343   1.354   1.272   1.283   1.191   1.241   1.225   1.217   1.263   1.254   1.228   1.200   1.135   1.145   1.195   1.203   1.223   1.195   1.186   1.126   1.134   1.129   1.129   1.194   1.171   1.155   1.186   1.195   1.166   1.153   1.161   1.156   1.201   1.150   1.164   1.180   1.178
   156.00    1.202   1.157   1.181   1.239   1.305   1.295   1.207   1.226   1.269   1.312   1.295   1.243   1.206   1.178   1.226   1.231   1.257   1.277   1.292   1.293   1.234   1.125   1.134   1.098   1.135   1.139   1.152   1.125   1.138   1.156   1.229   1.191   1.206   1.232   1.186   1.303   1.396   1.382   1.338   1.278   1.212   1.219   1.271   1.248   1.265   1.272   1.200   1.191   1.170   1.146   1.200   1.226   1.204   1.154   1.143   1.142   1.095   1.114   1.189   1.204   1.167   1.156   1.149   1.125   1.154   1.136   1.166   1.168   1.188   1.153   1.207   1.180   1.192
   151.00    1.170   1.174   1.175   1.220   1.285   1.264   1.294   1.243   1.276   1.282   1.270   1.222   1.189   1.216   1.218   1.183   1.189   1.207   1.259   1.191   1.189   1.139   1.127   1.157   1.150   1.151   1.179   1.178   1.139   1.141   1.177   1.190   1.197   1.179   1.204   1.262   1.354   1.390   1.407   1.353   1.245   1.230   1.227   1.254   1.288   1.257   1.278   1.213   1.156   1.197   1.167   1.164   1.169   1.115   1.142   1.141   1.126   1.133   1.141   1.138   1.171   1.222   1.161   1.157   1.144   1.097   1.124   1.148   1.151   1.215   1.150   1.203   1.221
   146.00    1.131   1.134   1.138   1.213   1.233   1.250   1.317   1.292   1.240   1.202   1.219   1.180   1.201   1.173   1.209   1.187   1.214   1.211   1.188   1.163   1.124   1.122   1.137   1.130   1.129   1.197   1.157   1.151   1.176   1.167   1.146   1.219   1.169   1.174   1.175   1.234   1.316   1.356   1.393   1.310   1.284   1.240   1.210   1.298   1.321   1.227   1.272   1.227   1.182   1.168   1.179   1.167   1.157   1.124   1.164   1.131   1.109   1.148   1.150   1.163   1.190   1.224   1.191   1.173   1.159   1.139   1.162   1.164   1.074   1.123   1.144   1.166   1.162
   141.00    1.152   1.171   1.151   1.199   1.264   1.230   1.270   1.264   1.274   1.179   1.229   1.182   1.186   1.164   1.201   1.224   1.159   1.176   1.204   1.177   1.158   1.127   1.144   1.168   1.178   1.198   1.190   1.164   1.160   1.206   1.188   1.212   1.176   1.220   1.217   1.219   1.233   1.264   1.338   1.329   1.259   1.251   1.277   1.329   1.292   1.231   1.212   1.192   1.195   1.188   1.198   1.160   1.155   1.189   1.126   1.093   1.094   1.118   1.137   1.142   1.163   1.182   1.193   1.178   1.156   1.175   1.190   1.143   1.152   1.139   1.124   1.086   1.137
   136.00    1.209   1.241   1.193   1.214   1.218   1.195   1.183   1.229   1.200   1.193   1.193   1.165   1.167   1.153   1.142   1.147   1.206   1.186   1.203   1.185   1.186   1.097   1.096   1.185   1.238   1.265   1.212   1.137   1.169   1.185   1.205   1.238   1.199   1.214   1.184   1.237   1.249   1.242   1.259   1.265   1.247   1.227   1.299   1.316   1.267   1.271   1.235   1.202   1.206   1.137   1.200   1.166   1.170   1.206   1.125   1.147   1.098   1.134   1.115   1.049   1.103   1.142   1.160   1.185   1.153   1.204   1.174   1.195   1.162   1.179   1.134   1.110   1.124
   131.00    1.218   1.212   1.199   1.169   1.173   1.134   1.183   1.194   1.211   1.167   1.158   1.145   1.120   1.134   1.175   1.172   1.206   1.224   1.225   1.239   1.172   1.096   1.118   1.165   1.187   1.225   1.197   1.161   1.173   1.184   1.176   1.206   1.192   1.173   1.196   1.227   1.184   1.185   1.240   1.279   1.293   1.249   1.289   1.282   1.214   1.238   1.214   1.210   1.189   1.147   1.199   1.199   1.136   1.167   1.149   1.148   1.132   1.088   1.085   1.061   1.090   1.112   1.109   1.140   1.160   1.172   1.163   1.184   1.200   1.155   1.107   1.116   1.118
   126.00    1.216   1.229   1.216   1.182   1.137   1.124   1.126   1.128   1.137   1.149   1.111   1.166   1.179   1.168   1.165   1.179   1.203   1.215   1.200   1.202   1.199   1.085   1.112   1.131   1.139   1.186   1.194   1.165   1.191   1.187   1.217   1.280   1.212   1.191   1.164   1.198   1.177   1.203   1.204   1.238   1.287   1.253   1.282   1.239   1.252   1.258   1.240   1.216   1.222   1.193   1.262   1.192   1.129   1.121   1.151   1.116   1.091   1.094   1.098   1.109   1.088   1.106   1.113   1.151   1.161   1.193   1.189   1.176   1.201   1.173   1.144   1.113   1.149
   121.00    1.213   1.193   1.226   1.172   1.156   1.166   1.122   1.094   1.101   1.159   1.166   1.157   1.213   1.234   1.174   1.206   1.145   1.227   1.230   1.180   1.190   1.132   1.135   1.182   1.167   1.194   1.179   1.189   1.194   1.169   1.214   1.265   1.208   1.157   1.173   1.181   1.162   1.166   1.195   1.175   1.206   1.264   1.269   1.237   1.250   1.248   1.227   1.209   1.217   1.197   1.224   1.146   1.098   1.161   1.143   1.118   1.105   1.118   1.083   1.104   1.108   1.125   1.125   1.156   1.168   1.202   1.185   1.146   1.130   1.152   1.169   1.155   1.168
   116.00    1.229   1.155   1.188   1.183   1.159   1.132   1.119   1.049   1.128   1.185   1.150   1.146   1.173   1.222   1.228   1.183   1.252   1.284   1.281   1.218   1.122   1.157   1.137   1.200   1.219   1.219   1.188   1.202   1.227   1.216   1.223   1.245   1.218   1.249   1.164   1.208   1.194   1.164   1.231   1.218   1.252   1.249   1.231   1.235   1.227   1.227   1.183   1.189   1.202   1.179   1.181   1.221   1.149   1.138   1.127   1.157   1.147   1.122   1.110   1.088   1.119   1.138   1.131   1.154   1.187   1.207   1.173   1.108   1.168   1.147   1.156   1.136   1.082
   111.00    1.260   1.210   1.255   1.196   1.173   1.132   1.137   1.144   1.125   1.184   1.155   1.137   1.129   1.194   1.229   1.224   1.234   1.276   1.285   1.291   1.179   1.104   1.158   1.172   1.184   1.219   1.198   1.171   1.267   1.253   1.244   1.236   1.194   1.171   1.146   1.169   1.201   1.167   1.181   1.194   1.229   1.226   1.288   1.236   1.215   1.223   1.236   1.179   1.137   1.157   1.135   1.137   1.184   1.149   1.145   1.139   1.121   1.114   1.097   1.107   1.125   1.170   1.158   1.205   1.191   1.207   1.177   1.170   1.122   1.139   1.172   1.114   1.131
   106.00    1.226   1.194   1.253   1.214   1.209   1.159   1.189   1.144   1.130   1.193   1.183   1.163   1.175   1.190   1.235   1.271   1.205   1.246   1.263   1.249   1.214   1.145   1.161   1.167   1.192   1.198   1.204   1.228   1.243   1.267   1.236   1.211   1.145   1.167   1.132   1.142   1.123   1.161   1.214   1.199   1.200   1.229   1.285   1.262   1.255   1.268   1.235   1.171   1.152   1.148   1.136   1.167   1.158   1.180   1.173   1.150   1.135   1.121   1.106   1.124   1.171   1.171   1.194   1.218   1.205   1.191   1.148   1.188   1.149   1.160   1.153   1.137   1.139
   101.00    1.209   1.215   1.249   1.179   1.167   1.161   1.151   1.128   1.154   1.204   1.229   1.181   1.186   1.191   1.200   1.197   1.212   1.201   1.218   1.241   1.204   1.164   1.137   1.118   1.135   1.173   1.206   1.201   1.214   1.190   1.158   1.139   1.168   1.173   1.147   1.166   1.146   1.141   1.151   1.165   1.154   1.228   1.240   1.187   1.251   1.264   1.264   1.209   1.149   1.130   1.135   1.161   1.182   1.217   1.169   1.192   1.113   1.134   1.151   1.171   1.195   1.183   1.199   1.224   1.172   1.169   1.158   1.205   1.193   1.194   1.187   1.122   1.183
    96.00    1.261   1.214   1.214   1.196   1.185   1.159   1.127   1.142   1.198   1.205   1.189   1.177   1.223   1.207   1.261   1.232   1.221   1.177   1.161   1.214   1.180   1.181   1.144   1.125   1.174   1.208   1.195   1.213   1.225   1.187   1.185   1.180   1.148   1.171   1.192   1.187   1.117   1.120   1.106   1.123   1.147   1.188   1.192   1.221   1.206   1.185   1.201   1.224   1.161   1.132   1.131   1.163   1.173   1.196   1.169   1.182   1.150   1.148   1.198   1.167   1.185   1.192   1.206   1.180   1.212   1.119   1.148   1.179   1.174   1.176   1.190   1.213   1.186
    91.00    1.220   1.233   1.212   1.250   1.239   1.202   1.161   1.193   1.227   1.209   1.182   1.124   1.233   1.231   1.290   1.284   1.234   1.240   1.248   1.243   1.234   1.189   1.149   1.149   1.200   1.204   1.234   1.196   1.176   1.174   1.150   1.131   1.156   1.170   1.185   1.175   1.162   1.156   1.134   1.175   1.103   1.159   1.173   1.155   1.138   1.136   1.111   1.160   1.107   1.126   1.099   1.120   1.176   1.214   1.166   1.201   1.189   1.213   1.189   1.245   1.253   1.181   1.192   1.168   1.170   1.127   1.154   1.162   1.155   1.167   1.194   1.185   1.248
    86.00    1.201   1.213   1.229   1.231   1.263   1.184   1.263   1.208   1.220   1.181   1.135   1.125   1.172   1.216   1.254   1.295   1.264   1.239   1.254   1.205   1.231   1.223   1.171   1.170   1.179   1.196   1.182   1.211   1.177   1.212   1.153   1.157   1.156   1.143   1.078   1.176   1.167   1.128   1.126   1.128   1.155   1.162   1.168   1.116   1.158   1.134   1.107   1.136   1.123   1.100   1.133   1.122   1.170   1.186   1.231   1.193   1.217   1.203   1.186   1.248   1.218   1.171   1.164   1.185   1.137   1.137   1.134   1.168   1.205   1.173   1.189   1.212   1.234
    81.00    1.183   1.216   1.229   1.223   1.270   1.224   1.230   1.196   1.266   1.205   1.167   1.170   1.131   1.186   1.233   1.240   1.251   1.225   1.288   1.180   1.231   1.139   1.176   1.168   1.203   1.205   1.218   1.200   1.209   1.210   1.176   1.179   1.133   1.130   1.093   1.142   1.126   1.135   1.120   1.138   1.196   1.169   1.135   1.099   1.107   1.110   1.108   1.130   1.103   1.184   1.151   1.137   1.148   1.179   1.206   1.178   1.202   1.202   1.167   1.204   1.234   1.201   1.128   1.143   1.133   1.162   1.153   1.180   1.189   1.195   1.198   1.193   1.202
    76.00    1.189   1.166   1.286   1.264   1.315   1.196   1.225   1.237   1.252   1.204   1.195   1.177   1.188   1.216   1.267   1.253   1.273   1.253   1.279   1.180   1.186   1.184   1.152   1.161   1.200   1.222   1.238   1.211   1.199   1.234   1.161   1.138   1.137   1.152   1.146   1.088   1.170   1.110   1.098   1.175   1.154   1.172   1.142   1.103   1.116   1.143   1.128   1.151   1.170   1.187   1.208   1.139   1.204   1.184   1.159   1.199   1.201   1.226   1.211   1.180   1.198   1.205   1.143   1.157   1.204   1.188   1.176   1.168   1.170   1.178   1.189   1.241   1.249
    71.00    1.119   1.165   1.243   1.258   1.226   1.213   1.206   1.235   1.241   1.222   1.169   1.171   1.208   1.248   1.275   1.279   1.267   1.250   1.249   1.170   1.160   1.158   1.140   1.180   1.182   1.217   1.250   1.215   1.161   1.142   1.172   1.144   1.170   1.143   1.169   1.172   1.149   1.168   1.156   1.151   1.165   1.120   1.139   1.159   1.167   1.196   1.187   1.191   1.183   1.170   1.185   1.179   1.156   1.150   1.217   1.190   1.164   1.221   1.199   1.197   1.149   1.172   1.198   1.210   1.165   1.179   1.141   1.152   1.185   1.194   1.205   1.249   1.253
    66.00    1.155   1.171   1.178   1.234   1.218   1.203   1.179   1.216   1.225   1.221   1.244   1.219   1.186   1.292   1.310   1.307   1.311   1.262   1.250   1.156   1.140   1.187   1.147   1.153   1.185   1.174   1.218   1.250   1.200   1.121   1.195   1.166   1.122   1.136   1.176   1.139   1.186   1.206   1.201   1.156   1.195   1.199   1.131   1.154   1.163   1.229   1.195   1.149   1.164   1.164   1.186   1.150   1.171   1.169   1.202   1.163   1.189   1.191   1.162   1.191   1.156   1.189   1.193   1.191   1.185   1.160   1.147   1.156   1.159   1.210   1.212   1.227   1.250
    61.00    1.213   1.172   1.205   1.218   1.242   1.237   1.241   1.264   1.278   1.271   1.210   1.213   1.216   1.292   1.335   1.302   1.285   1.246   1.205   1.159   1.134   1.157   1.181   1.187   1.191   1.189   1.199   1.210   1.204   1.184   1.192   1.178   1.169   1.128   1.172   1.153   1.148   1.167   1.200   1.221   1.179   1.202   1.176   1.141   1.157   1.167   1.200   1.188   1.217   1.192   1.193   1.151   1.125   1.151   1.132   1.148   1.194   1.163   1.129   1.128   1.159   1.130   1.162   1.184   1.209   1.200   1.159   1.139   1.121   1.186   1.153   1.186   1.206
    56.00    1.200   1.220   1.224   1.283   1.234   1.195   1.245   1.286   1.272   1.195   1.195   1.223   1.239   1.290   1.267   1.224   1.219   1.190   1.201   1.182   1.149   1.161   1.222   1.208   1.193   1.243   1.226   1.275   1.254   1.238   1.169   1.221   1.179   1.159   1.149   1.189   1.175   1.117   1.157   1.178   1.182   1.157   1.151   1.115   1.171   1.177   1.153   1.171   1.162   1.177   1.202   1.155   1.145   1.142   1.133   1.145   1.131   1.137   1.134   1.107   1.143   1.138   1.153   1.163   1.181   1.132   1.128   1.130   1.118   1.143   1.150   1.154   1.148
    51.00    1.232   1.233   1.251   1.283   1.210   1.168   1.230   1.265   1.246   1.243   1.223   1.283   1.254   1.236   1.267   1.253   1.232   1.226   1.219   1.155   1.164   1.178   1.177   1.199   1.226   1.273   1.256   1.307   1.246   1.202   1.184   1.198   1.235   1.183   1.204   1.221   1.191   1.179   1.180   1.190   1.199   1.167   1.171   1.146   1.144   1.152   1.131   1.139   1.140   1.179   1.152   1.160   1.140   1.140   1.161   1.203   1.144   1.139   1.160   1.128   1.193   1.186   1.135   1.132   1.144   1.137   1.128   1.157   1.129   1.121   1.126   1.113   1.117
    46.00    1.192   1.203   1.240   1.243   1.237   1.211   1.243   1.235   1.204   1.210   1.246   1.270   1.257   1.286   1.242   1.213   1.210   1.176   1.234   1.172   1.202   1.225   1.184   1.213   1.308   1.282   1.263   1.286   1.216   1.220   1.218   1.213   1.237   1.189   1.186   1.208   1.187   1.201   1.253   1.193   1.187   1.151   1.163   1.134   1.114   1.117   1.144   1.155   1.119   1.146   1.190   1.235   1.183   1.117   1.160   1.178   1.213   1.170   1.177   1.173   1.174   1.181   1.151   1.142   1.095   1.100   1.114   1.154   1.138   1.133   1.128   1.098   1.098
    41.00    1.183   1.201   1.178   1.193   1.198   1.175   1.221   1.236   1.219   1.219   1.257   1.284   1.287   1.295   1.291   1.255   1.248   1.185   1.232   1.260   1.210   1.145   1.176   1.243   1.263   1.237   1.219   1.260   1.242   1.234   1.192   1.215   1.218   1.227   1.184   1.196   1.212   1.203   1.192   1.240   1.203   1.208   1.162   1.124   1.128   1.134   1.158   1.122   1.176   1.168   1.192   1.163   1.127   1.156   1.131   1.175   1.194   1.180   1.173   1.120   1.156   1.158   1.147   1.143   1.173   1.131   1.148   1.138   1.156   1.162   1.142   1.143   1.153
    36.00    1.147   1.132   1.127   1.127   1.142   1.174   1.181   1.216   1.213   1.191   1.211   1.206   1.269   1.234   1.262   1.245   1.234   1.147   1.176   1.166   1.154   1.152   1.146   1.196   1.222   1.279   1.236   1.289   1.285   1.274   1.243   1.228   1.195   1.204   1.157   1.167   1.192   1.180   1.200   1.248   1.176   1.200   1.157   1.118   1.106   1.134   1.129   1.137   1.150   1.164   1.124   1.098   1.101   1.126   1.169   1.174   1.118   1.141   1.155   1.072   1.136   1.155   1.189   1.149   1.149   1.108   1.143   1.122   1.134   1.101   1.147   1.166   1.201
    31.00    1.119   1.108   1.125   1.156   1.203   1.202   1.169   1.191   1.188   1.169   1.157   1.164   1.209   1.281   1.253   1.288   1.243   1.180   1.213   1.143   1.110   1.111   1.177   1.202   1.194   1.248   1.225   1.227   1.246   1.274   1.205   1.198   1.227   1.162   1.178   1.202   1.220   1.205   1.196   1.207   1.218   1.197   1.197   1.171   1.164   1.138   1.124   1.147   1.204   1.149   1.100   1.115   1.128   1.130   1.124   1.159   1.152   1.142   1.154   1.125   1.156   1.167   1.114   1.146   1.152   1.128   1.122   1.135   1.145   1.137   1.166   1.171   1.151
    26.00    1.149   1.141   1.164   1.155   1.144   1.157   1.176   1.160   1.176   1.184   1.177   1.192   1.228   1.308   1.260   1.213   1.150   1.218   1.220   1.086   1.171   1.139   1.171   1.204   1.244   1.241   1.239   1.171   1.191   1.249   1.219   1.207   1.194   1.200   1.185   1.167   1.209   1.210   1.179   1.209   1.231   1.209   1.181   1.183   1.137   1.152   1.175   1.149   1.177   1.137   1.111   1.062   1.120   1.158   1.175   1.162   1.164   1.166   1.195   1.197   1.130   1.177   1.112   1.127   1.126   1.138   1.113   1.156   1.162   1.151   1.184   1.160   1.128
    21.00    1.135   1.131   1.155   1.126   1.154   1.155   1.204   1.180   1.172   1.184   1.183   1.186   1.227   1.270   1.233   1.189   1.155   1.191   1.154   1.184   1.157   1.165   1.179   1.224   1.246   1.253   1.232   1.205   1.171   1.161   1.190   1.197   1.184   1.158   1.200   1.139   1.139   1.185   1.170   1.157   1.175   1.162   1.167   1.209   1.123   1.145   1.146   1.135   1.110   1.116   1.103   1.139   1.110   1.175   1.218   1.162   1.176   1.154   1.188   1.195   1.234   1.175   1.150   1.130   1.161   1.144   1.136   1.160   1.157   1.179   1.177   1.123   1.094
    16.00    1.151   1.143   1.147   1.181   1.199   1.204   1.235   1.226   1.164   1.190   1.188   1.244   1.236   1.275   1.234   1.211   1.158   1.191   1.120   1.159   1.154   1.125   1.142   1.154   1.162   1.233   1.247   1.194   1.166   1.204   1.195   1.164   1.174   1.140   1.120   1.154   1.164   1.171   1.172   1.172   1.192   1.190   1.212   1.159   1.201   1.136   1.117   1.152   1.088   1.099   1.120   1.107   1.097   1.146   1.174   1.179   1.199   1.182   1.179   1.169   1.157   1.215   1.203   1.158   1.145   1.178   1.188   1.151   1.126   1.172   1.135   1.131   1.086
    11.00    1.122   1.146   1.180   1.172   1.234   1.256   1.312   1.192   1.183   1.220   1.255   1.250   1.283   1.256   1.226   1.201   1.190   1.180   1.128   1.149   1.194   1.160   1.175   1.162   1.164   1.208   1.179   1.148   1.180   1.164   1.171   1.152   1.161   1.181   1.160   1.110   1.166   1.160   1.137   1.166   1.205   1.188   1.213   1.221   1.192   1.126   1.091   1.122   1.113   1.128   1.097   1.068   1.078   1.151   1.157   1.201   1.239   1.225   1.179   1.160   1.159   1.214   1.229   1.203   1.169   1.159   1.180   1.146   1.113   1.106   1.106   1.092   1.088
     6.00    1.128   1.160   1.190   1.203   1.205   1.258   1.286   1.226   1.234   1.223   1.251   1.288   1.280   1.280   1.282   1.279   1.235   1.186   1.165   1.144   1.166   1.209   1.141   1.198   1.156   1.168   1.161   1.119   1.163   1.150   1.167   1.172   1.139   1.140   1.165   1.145   1.160   1.183   1.152   1.123   1.156   1.145   1.169   1.191   1.112   1.113   1.090   1.090   1.106   1.099   1.061   1.049   1.090   1.148   1.216   1.249   1.204   1.225   1.171   1.177   1.154   1.172   1.236   1.205   1.127   1.082   1.127   1.120   1.136   1.083   1.033   1.114   1.100
     1.00    1.170   1.193   1.184   1.213   1.219   1.265   1.260   1.235   1.251   1.233   1.242   1.235   1.277   1.237   1.273   1.299   1.239   1.196   1.220   1.200   1.187   1.229   1.178   1.172   1.187   1.138   1.170   1.162   1.161   1.170   1.158   1.136   1.148   1.127   1.130   1.127   1.134   1.135   1.128   1.108   1.127   1.164   1.123   1.125   1.154   1.108   1.100   1.084   1.086   1.129   1.098   1.095   1.132   1.135   1.160   1.237   1.223   1.184   1.151   1.120   1.177   1.194   1.176   1.193   1.143   1.133   1.120   1.141   1.148   1.130   1.069   1.125   1.087

   Mean standard deviation across all grid points:
      u component:    2.170 m/s
      v component:    1.829 m/s
      w component:    1.189 m/s


U-component (X) statistics from the interpolated hub point:

   Mean =  11.6748 m/s
   TI   =  17.6609 %


Processing complete.  10997 CPU seconds used.
