
This summary file was generated by TurbSim (from OpenFAST-v3.3.0) on 09-Jan-2023 at 13:47:36.


Runtime Options:

         1  Random seed #1
         3  Random seed #2
         F  Output binary HH turbulence parameters?
         F  Output formatted turbulence parameters?
         F  Output AeroDyn HH files?
         T  Output AeroDyn FF files?
         F  Output BLADED FF files?
         F  Output tower data?
         F  Output HAWC FF files?
         F  Output formatted FF files?
         T  Output coherent turbulence time step file?
 0 -  NONE  IEC turbulence models scaled to exact specified standard deviation


Turbine/Model Specifications:

        61  Vertical grid-point matrix dimension
        73  Horizontal grid-point matrix dimension
     0.100  Time step [seconds]
   600.000  Analysis time [seconds]
   600.000  Usable output time [seconds]
   151.000  Hub height [m]
   300.000  Grid height [m]
   360.000  Grid width [m]
     0.000  Vertical flow angle [degrees]
     0.000  Horizontal flow angle [degrees]


Meteorological Boundary Conditions:

    TIMESR  User-input time series spectral model
       N/A  IEC standard
       N/A  IEC turbulence characteristic
       N/A  IEC turbulence type
       N/A  IEC Extreme Turbulence Model (ETM) "c" parameter [m/s]
       PL   Wind profile type
   119.000  Reference height [m]
    11.400  Reference wind speed [m/s]
       N/A  Jet height [m]
     0.100  Power law exponent
     0.030  Surface roughness length [m]


Non-IEC Meteorological Boundary Conditions:

    45.000  Site latitude [degrees]
     0.050  Gradient Richardson number
     0.529  Friction or shear velocity [m/s]
       N/A  Mixing layer depth [m]
       N/A  Mean hub u'w' Reynolds stress
       N/A  Mean hub u'v' Reynolds stress
       N/A  Mean hub v'w' Reynolds stress


Spatial Coherence Models:

       IEC  u-component coherence model
       IEC  v-component coherence model
       IEC  w-component coherence model
(   12.000, 0.659E-03)  u-component coherence parameters
(   12.000, 0.659E-03)  v-component coherence parameters
(   12.000, 0.659E-03)  w-component coherence parameters
       N/A  Coherence exponent


Coherent Turbulence Scaling Parameters:

.\EventData
            Name of the path containing the coherent turbulence data files
       dns  Type of coherent turbulence data files
     1.000  Disturbance scale (ratio of wave height to rotor diameter)
     0.500  Fractional location of tower centerline from right
     0.500  Fractional location of hub height from the bottom of the dataset
    30.000  Minimum start time for coherent structures [seconds]


Profiles from User-Defined Time-Series Input:

  Height   Wind Speed   Horizontal Angle   Vertical Angle
   (m)        (m/s)          (deg)              (deg)    
  ------   ----------   ----------------   --------------
  119.00      11.47           0.00               -0.00


You have requested that the following file(s) be generated:

   HighT4.bts (AeroDyn/TurbSim full-field wind file)


Turbulence Simulation Scaling Parameter Summary:

   Turbulence model used                            =  User-input time series
   Gradient Richardson number                       =    0.050
   Monin-Obukhov (M-O) z/L parameter                =    0.067
   Monin-Obukhov (M-O) length scale                 = 2265.000 m
   Mean wind speed at hub height                    =   11.675 m/s

   Wind profile type                                =  Power law
   Power law exponent                               =    0.100
   Mean shear across rotor disk                     =    0.018 (m/s)/m
   Assumed rotor diameter                           =  300.000 m
   Surface roughness length                         =    0.030 m

   Nyquist frequency of turbulent wind field        =    5.000 Hz

   Number of time steps in the FFT                  =     6000
   Number of time steps output                      =     6000
   Number of points simulated                       =     4454


Mean Flow Angles:

   Vertical   =   0.0 degrees
   Horizontal =   0.0 degrees

Mean Wind Speed Profile:

   Height    Wind Speed   Horizontal Angle  Vertical Angle  U-comp (X)   V-comp (Y)   W-comp (Z)
     (m)        (m/s)         (degrees)       (degrees)       (m/s)        (m/s)        (m/s)   
   ------    ----------   ----------------  --------------  ----------   ----------   ----------
    301.0       12.51            0.00            0.00         12.51         0.00         0.00
    296.0       12.49            0.00            0.00         12.49         0.00         0.00
    291.0       12.47            0.00            0.00         12.47         0.00         0.00
    286.0       12.44            0.00            0.00         12.44         0.00         0.00
    281.0       12.42            0.00            0.00         12.42         0.00         0.00
    276.0       12.40            0.00            0.00         12.40         0.00         0.00
    271.0       12.38            0.00            0.00         12.38         0.00         0.00
    266.0       12.35            0.00            0.00         12.35         0.00         0.00
    261.0       12.33            0.00            0.00         12.33         0.00         0.00
    256.0       12.31            0.00            0.00         12.31         0.00         0.00
    251.0       12.28            0.00            0.00         12.28         0.00         0.00
    246.0       12.26            0.00            0.00         12.26         0.00         0.00
    241.0       12.23            0.00            0.00         12.23         0.00         0.00
    236.0       12.21            0.00            0.00         12.21         0.00         0.00
    231.0       12.18            0.00            0.00         12.18         0.00         0.00
    226.0       12.16            0.00            0.00         12.16         0.00         0.00
    221.0       12.13            0.00            0.00         12.13         0.00         0.00
    216.0       12.10            0.00            0.00         12.10         0.00         0.00
    211.0       12.07            0.00            0.00         12.07         0.00         0.00
    206.0       12.04            0.00            0.00         12.04         0.00         0.00
    201.0       12.01            0.00            0.00         12.01         0.00         0.00
    196.0       11.98            0.00            0.00         11.98         0.00         0.00
    191.0       11.95            0.00            0.00         11.95         0.00         0.00
    186.0       11.92            0.00            0.00         11.92         0.00         0.00
    181.0       11.89            0.00            0.00         11.89         0.00         0.00
    176.0       11.85            0.00            0.00         11.85         0.00         0.00
    171.0       11.82            0.00            0.00         11.82         0.00         0.00
    166.0       11.79            0.00            0.00         11.79         0.00         0.00
    161.0       11.75            0.00            0.00         11.75         0.00         0.00
    156.0       11.71            0.00            0.00         11.71         0.00         0.00
    151.0       11.67            0.00            0.00         11.67         0.00         0.00
    146.0       11.64            0.00            0.00         11.64         0.00         0.00
    141.0       11.60            0.00            0.00         11.60         0.00         0.00
    136.0       11.55            0.00            0.00         11.55         0.00         0.00
    131.0       11.51            0.00            0.00         11.51         0.00         0.00
    126.0       11.47            0.00            0.00         11.47         0.00         0.00
    121.0       11.42            0.00            0.00         11.42         0.00         0.00
    116.0       11.37            0.00            0.00         11.37         0.00         0.00
    111.0       11.32            0.00            0.00         11.32         0.00         0.00
    106.0       11.27            0.00            0.00         11.27         0.00         0.00
    101.0       11.21            0.00            0.00         11.21         0.00         0.00
     96.0       11.16            0.00            0.00         11.16         0.00         0.00
     91.0       11.10            0.00            0.00         11.10         0.00         0.00
     86.0       11.04            0.00            0.00         11.04         0.00         0.00
     81.0       10.97            0.00            0.00         10.97         0.00         0.00
     76.0       10.90            0.00            0.00         10.90         0.00         0.00
     71.0       10.83            0.00            0.00         10.83         0.00         0.00
     66.0       10.75            0.00            0.00         10.75         0.00         0.00
     61.0       10.66            0.00            0.00         10.66         0.00         0.00
     56.0       10.57            0.00            0.00         10.57         0.00         0.00
     51.0       10.47            0.00            0.00         10.47         0.00         0.00
     46.0       10.37            0.00            0.00         10.37         0.00         0.00
     41.0       10.25            0.00            0.00         10.25         0.00         0.00
     36.0       10.12            0.00            0.00         10.12         0.00         0.00
     31.0        9.97            0.00            0.00          9.97         0.00         0.00
     26.0        9.79            0.00            0.00          9.79         0.00         0.00
     21.0        9.58            0.00            0.00          9.58         0.00         0.00
     16.0        9.33            0.00            0.00          9.33         0.00         0.00
     11.0        8.98            0.00            0.00          8.98         0.00         0.00
      6.0        8.46            0.00            0.00          8.46         0.00         0.00
      1.0        7.07            0.00            0.00          7.07         0.00         0.00


Harvested Random Seeds after Generation of the Random Numbers:

   2107445636 Harvested seed # 1
    288957380 Harvested seed # 2


Hub-Height Simulated Turbulence Statistical Summary:

   Type of Wind        Min (m/s)   Mean (m/s)    Max (m/s)  Sigma (m/s)       TI (%)
   ----------------    ---------   ----------    ---------  -----------       ------
   Longitudinal (u)         5.65        11.67        20.25        2.419       20.721
   Lateral (v)             -6.38         0.00         6.19        1.831       15.687
   Vertical (w)            -3.61         0.00         4.02        1.104        9.457
   U component              5.65        11.67        20.25        2.419       20.721
   V component             -6.38         0.00         6.19        1.831       15.687
   W component             -3.61         0.00         4.02        1.104        9.457
   Horizontal (U&V)         5.78        11.82        20.34        2.393       20.244
   Total                    6.11        11.88        20.50        2.386       20.094

                       Min Reynolds     Mean Reynolds    Max Reynolds    Correlation
   Product             Stress (m/s)^2   Stress (m/s)^2   Stress (m/s)^2  Coefficient
   ----------------    --------------   --------------   --------------  -----------
   u'w'                    -17.550             0.131            22.231         0.049
   u'v'                    -25.746            -0.238            23.640        -0.054
   v'w'                    -10.891             0.001            16.977         0.001


   Friction Velocity (Ustar)  =      0.362 m/s
   Maximum Instantaneous TKE  =     41.804 (m/s)^2
   Maximum Instantaneous CTKE =     13.766 (m/s)^2


Grid Point Variance Summary:

   Y-coord -180.00 -175.00 -170.00 -165.00 -160.00 -155.00 -150.00 -145.00 -140.00 -135.00 -130.00 -125.00 -120.00 -115.00 -110.00 -105.00 -100.00  -95.00  -90.00  -85.00  -80.00  -75.00  -70.00  -65.00  -60.00  -55.00  -50.00  -45.00  -40.00  -35.00  -30.00  -25.00  -20.00  -15.00  -10.00   -5.00    0.00    5.00   10.00   15.00   20.00   25.00   30.00   35.00   40.00   45.00   50.00   55.00   60.00   65.00   70.00   75.00   80.00   85.00   90.00   95.00  100.00  105.00  110.00  115.00  120.00  125.00  130.00  135.00  140.00  145.00  150.00  155.00  160.00  165.00  170.00  175.00  180.00

   Height   Standard deviation at grid points for the u component:
   301.00    2.400   2.435   2.302   2.300   2.464   2.472   2.400   2.435   2.366   2.293   2.268   2.192   2.201   2.164   2.204   2.341   2.278   2.267   2.314   1.984   2.090   1.984   1.970   1.945   2.142   2.301   2.377   2.359   2.441   2.243   2.083   2.134   2.242   2.383   2.129   2.296   2.243   2.034   2.053   2.025   1.910   1.966   2.005   1.889   1.957   2.038   2.120   2.041   2.066   2.122   1.965   2.222   2.355   2.182   2.307   2.405   2.557   2.393   2.427   2.317   2.440   2.453   2.433   2.677   2.795   2.886   2.613   2.535   2.592   2.318   2.335   2.278   2.254
   296.00    2.218   2.408   2.333   2.528   2.369   2.413   2.439   2.325   2.393   2.227   2.135   2.209   2.262   2.209   2.265   2.355   2.439   2.394   2.477   2.136   2.136   1.956   1.996   2.076   2.149   2.187   2.341   2.293   2.342   2.113   2.061   1.966   2.046   2.260   2.461   2.329   2.200   1.999   2.002   2.069   2.032   1.973   2.006   1.908   1.916   2.003   1.995   2.143   2.322   2.239   2.189   2.381   2.163   2.255   2.297   2.389   2.390   2.590   2.481   2.470   2.432   2.459   2.493   2.626   2.773   2.702   2.429   2.323   2.460   2.524   2.495   2.384   2.263
   291.00    2.360   2.445   2.393   2.353   2.438   2.405   2.462   2.341   2.544   2.434   2.156   2.386   2.497   2.307   2.410   2.271   2.426   2.477   2.410   2.182   2.072   1.988   1.928   2.226   2.370   2.456   2.514   2.190   2.209   2.116   2.065   2.028   2.127   2.328   2.419   2.345   2.138   2.021   2.021   2.129   2.134   2.017   1.889   2.118   2.033   2.109   2.140   2.145   2.327   2.232   2.403   2.452   2.350   2.125   2.235   2.329   2.220   2.358   2.261   2.305   2.484   2.377   2.633   2.333   2.401   2.462   2.291   2.410   2.364   2.635   2.511   2.590   2.490
   286.00    2.234   2.226   2.247   2.350   2.379   2.372   2.385   2.459   2.582   2.480   2.415   2.528   2.491   2.533   2.594   2.371   2.460   2.454   2.316   2.196   1.943   2.045   2.190   2.248   2.474   2.488   2.468   2.335   2.322   2.221   2.182   2.103   2.225   2.406   2.302   2.291   2.072   2.030   2.008   1.946   2.003   2.091   1.992   2.214   2.121   2.297   2.283   2.380   2.294   2.411   2.401   2.575   2.328   2.083   2.137   2.193   2.345   2.282   2.075   2.248   2.220   2.160   2.350   2.288   2.368   2.247   2.257   2.198   2.310   2.438   2.552   2.575   2.545
   281.00    2.118   2.264   2.140   2.358   2.390   2.427   2.633   2.701   2.523   2.602   2.518   2.569   2.390   2.363   2.523   2.543   2.459   2.301   2.303   2.209   2.112   1.940   2.280   2.444   2.570   2.529   2.525   2.451   2.294   2.169   2.136   2.252   2.315   2.298   2.350   2.218   2.374   2.276   2.081   1.994   1.933   2.031   2.175   2.202   2.181   2.389   2.310   2.323   2.286   2.419   2.489   2.577   2.473   2.329   2.212   2.284   2.270   2.348   2.294   2.255   2.190   2.117   2.356   2.379   2.290   2.299   2.237   2.377   2.512   2.544   2.478   2.468   2.497
   276.00    1.952   2.141   2.038   2.154   2.481   2.382   2.681   2.548   2.601   2.684   2.607   2.605   2.471   2.477   2.519   2.547   2.264   2.360   2.277   2.140   2.170   2.158   2.132   2.398   2.469   2.566   2.253   2.230   2.141   2.305   2.203   2.202   2.410   2.307   2.241   2.342   2.287   2.166   2.009   1.820   2.021   2.122   2.170   2.207   2.140   2.251   2.394   2.293   2.381   2.457   2.466   2.474   2.615   2.366   2.407   2.394   2.231   2.316   2.462   2.337   2.236   2.099   2.166   2.216   2.312   2.238   2.304   2.246   2.495   2.629   2.417   2.353   2.445
   271.00    2.153   2.054   2.046   2.261   2.285   2.637   2.651   2.753   2.592   2.756   2.770   2.728   2.598   2.531   2.284   2.462   2.377   2.377   2.255   2.065   2.126   2.043   2.290   2.456   2.382   2.484   2.276   2.062   2.210   2.273   2.327   2.266   2.392   2.284   2.409   2.324   2.363   2.208   2.158   2.064   2.074   2.187   2.162   2.186   2.250   2.281   2.540   2.449   2.442   2.375   2.370   2.367   2.373   2.347   2.391   2.164   2.318   2.283   2.382   2.397   2.421   2.421   2.375   2.439   2.277   2.270   2.193   2.315   2.335   2.483   2.373   2.357   2.356
   266.00    2.045   2.092   1.981   2.158   2.373   2.505   2.520   2.640   2.686   2.633   2.657   2.537   2.509   2.522   2.318   2.229   2.357   2.213   2.177   2.105   2.237   2.246   2.324   2.391   2.384   2.576   2.456   2.180   2.264   2.147   2.365   2.218   2.280   2.266   2.348   2.350   2.321   2.246   2.283   2.274   2.289   2.309   2.205   2.183   2.312   2.392   2.422   2.462   2.393   2.288   2.204   2.162   2.157   2.195   2.158   2.242   2.397   2.458   2.458   2.198   2.396   2.529   2.469   2.469   2.377   2.518   2.489   2.305   2.317   2.349   2.429   2.441   2.546
   261.00    1.954   2.053   1.967   2.184   2.412   2.327   2.370   2.513   2.538   2.637   2.626   2.457   2.505   2.455   2.440   2.331   2.195   2.141   2.236   2.166   2.362   2.192   2.200   2.200   2.243   2.394   2.306   2.241   2.190   2.165   2.299   2.264   2.187   2.194   2.253   2.374   2.385   2.340   2.229   2.225   2.254   2.448   2.439   2.485   2.354   2.419   2.427   2.519   2.276   2.231   2.359   2.223   2.199   2.287   2.064   2.252   2.228   2.346   2.264   2.316   2.314   2.407   2.288   2.348   2.510   2.403   2.243   2.197   2.193   2.304   2.244   2.498   2.509
   256.00    2.021   2.074   2.139   2.244   2.301   2.250   2.398   2.658   2.532   2.613   2.622   2.556   2.591   2.515   2.344   2.296   2.337   2.270   2.099   2.289   2.445   2.359   2.256   2.308   2.267   2.338   2.335   2.142   2.044   2.147   2.310   2.334   2.055   2.118   2.201   2.151   2.329   2.349   2.207   2.188   2.351   2.383   2.473   2.544   2.411   2.242   2.270   2.230   2.341   2.268   2.292   2.061   2.164   2.176   2.213   2.143   2.212   2.355   2.301   2.286   2.342   2.398   2.447   2.352   2.424   2.316   2.380   2.164   2.246   2.246   2.253   2.284   2.284
   251.00    2.003   2.058   2.254   2.115   2.293   2.208   2.330   2.484   2.508   2.613   2.660   2.625   2.420   2.472   2.277   2.270   2.196   2.183   2.367   2.190   2.432   2.379   2.217   2.257   2.409   2.363   2.172   2.215   2.078   2.257   2.341   2.121   2.207   2.218   2.299   2.312   2.290   2.207   2.169   2.288   2.338   2.362   2.327   2.358   2.343   2.291   2.215   2.245   2.254   2.332   2.245   2.060   2.049   2.151   2.155   2.269   2.151   2.085   2.134   2.214   2.419   2.588   2.440   2.335   2.477   2.362   2.335   2.282   2.217   2.192   2.367   2.248   2.068
   246.00    1.968   1.965   2.104   2.362   2.302   2.281   2.514   2.608   2.506   2.374   2.542   2.514   2.476   2.315   2.366   2.109   2.159   2.285   2.316   2.298   2.462   2.276   2.188   2.210   2.226   2.245   2.310   2.152   2.202   2.392   2.375   2.119   2.099   2.160   2.282   2.501   2.445   2.331   2.450   2.393   2.548   2.395   2.297   2.395   2.208   2.267   2.326   2.490   2.448   2.376   2.193   2.296   2.036   2.167   2.116   2.127   2.022   1.988   2.125   2.240   2.282   2.575   2.659   2.371   2.285   2.429   2.461   2.403   2.155   2.175   2.327   2.200   2.080
   241.00    1.933   2.040   2.136   2.321   2.274   2.172   2.437   2.573   2.471   2.466   2.499   2.450   2.406   2.337   2.545   2.289   2.338   2.229   2.268   2.173   2.330   2.253   2.236   2.125   2.100   2.404   2.257   2.228   2.246   2.408   2.321   2.261   2.211   2.215   2.286   2.432   2.391   2.339   2.417   2.399   2.584   2.382   2.333   2.333   2.346   2.290   2.310   2.379   2.288   2.347   2.315   2.336   2.032   2.116   1.888   1.842   1.931   1.913   2.020   2.080   2.323   2.450   2.502   2.413   2.293   2.494   2.505   2.524   2.321   2.142   2.195   2.218   2.145
   236.00    2.074   2.012   2.077   2.191   2.165   2.190   2.336   2.404   2.469   2.291   2.444   2.399   2.377   2.701   2.669   2.524   2.450   2.206   2.334   2.284   2.268   2.180   2.189   2.186   2.212   2.208   2.408   2.412   2.267   2.372   2.312   2.202   2.139   2.100   2.111   2.328   2.358   2.336   2.423   2.533   2.517   2.328   2.313   2.337   2.263   2.324   2.238   2.393   2.213   2.245   2.219   2.140   2.154   2.033   1.891   1.813   1.885   1.959   1.872   2.111   2.264   2.399   2.515   2.375   2.449   2.494   2.435   2.334   2.296   2.232   2.232   2.167   2.164
   231.00    2.165   2.130   2.211   2.225   2.133   2.037   2.185   2.331   2.449   2.417   2.263   2.399   2.325   2.458   2.717   2.685   2.494   2.385   2.422   2.332   2.429   2.296   2.117   2.181   2.217   2.159   2.352   2.496   2.274   2.279   2.201   2.241   2.175   1.949   1.980   2.097   2.216   2.325   2.458   2.429   2.321   2.351   2.254   2.110   2.291   2.277   2.187   2.245   2.337   2.352   2.241   2.100   2.202   2.017   1.908   1.756   1.826   2.016   2.004   2.102   2.229   2.216   2.223   2.407   2.442   2.496   2.381   2.328   2.318   2.302   2.204   2.355   2.406
   226.00    2.241   2.187   2.182   2.200   2.214   2.199   2.270   2.363   2.377   2.296   2.274   2.213   2.220   2.430   2.587   2.459   2.290   2.424   2.307   2.317   2.573   2.283   2.121   2.280   2.313   2.288   2.456   2.422   2.422   2.303   2.158   2.236   2.156   2.016   2.022   2.211   2.155   2.118   2.141   2.279   2.400   2.494   2.389   2.323   2.172   2.367   2.237   2.278   2.338   2.334   2.221   2.069   2.002   1.883   1.911   1.904   2.016   1.995   2.145   2.187   2.291   2.260   2.179   2.256   2.472   2.432   2.544   2.504   2.407   2.460   2.352   2.334   2.383
   221.00    2.105   2.062   2.227   2.141   2.049   2.136   2.187   2.238   2.434   2.332   2.233   2.370   2.334   2.263   2.344   2.256   2.244   2.339   2.263   2.287   2.426   2.320   2.172   2.294   2.345   2.599   2.497   2.438   2.270   2.237   2.101   2.170   2.002   2.005   2.000   2.046   2.068   1.983   2.088   2.187   2.361   2.275   2.338   2.158   2.109   2.174   2.259   2.164   2.304   2.285   2.295   2.333   2.157   1.945   1.976   1.977   1.915   1.986   2.037   2.093   2.161   2.323   2.176   2.189   2.449   2.617   2.438   2.553   2.573   2.454   2.282   2.304   2.385
   216.00    2.139   2.067   1.998   2.079   2.210   2.313   2.226   2.157   2.480   2.496   2.256   2.226   2.104   2.265   2.224   2.213   2.157   2.149   2.270   2.408   2.500   2.490   2.407   2.404   2.359   2.556   2.513   2.518   2.338   2.104   2.116   1.955   1.893   1.940   2.026   2.066   2.036   1.929   2.190   2.237   2.202   2.119   2.122   2.014   2.078   2.171   2.364   2.312   2.298   2.336   2.386   2.232   2.161   2.104   1.884   1.965   1.891   1.866   2.017   2.069   2.034   2.192   2.227   2.485   2.498   2.479   2.486   2.534   2.611   2.535   2.546   2.554   2.479
   211.00    2.015   1.997   2.054   2.089   2.470   2.333   2.337   2.331   2.312   2.399   2.216   2.068   2.069   2.311   2.212   2.033   2.044   2.154   2.129   2.227   2.365   2.467   2.303   2.331   2.427   2.375   2.536   2.335   2.380   2.307   2.314   2.235   1.919   1.939   1.967   1.964   2.010   2.104   2.163   2.243   2.247   2.111   2.276   2.306   2.303   2.173   2.232   2.363   2.219   2.193   2.169   2.099   2.175   2.111   2.064   1.988   1.928   2.000   1.971   2.154   2.237   2.198   2.360   2.521   2.563   2.543   2.630   2.705   2.653   2.590   2.608   2.598   2.682
   206.00    1.927   2.103   2.216   2.389   2.394   2.400   2.416   2.492   2.374   2.231   2.437   2.346   2.137   2.192   1.931   1.907   2.102   2.158   2.199   2.287   2.409   2.404   2.511   2.266   2.065   2.236   2.417   2.317   2.507   2.498   2.206   2.088   1.985   2.052   2.017   2.044   2.047   2.131   2.108   2.187   2.333   2.248   2.385   2.429   2.355   2.180   2.162   2.225   2.169   2.194   2.160   2.106   1.958   2.173   1.984   2.010   2.076   2.185   2.189   2.274   2.235   2.233   2.353   2.454   2.589   2.763   2.671   2.653   2.738   2.595   2.507   2.530   2.448
   201.00    1.970   1.989   2.118   2.241   2.268   2.262   2.314   2.372   2.231   2.311   2.334   2.397   2.119   2.225   2.012   1.887   2.159   2.114   2.106   2.269   2.392   2.482   2.498   2.296   2.076   2.299   2.376   2.367   2.356   2.458   2.160   1.990   1.848   1.983   2.168   1.968   1.974   2.133   2.132   2.257   2.251   2.348   2.408   2.342   2.328   2.221   2.127   2.157   2.071   1.999   2.063   2.162   2.175   2.033   2.120   2.163   2.170   2.084   2.167   2.232   2.107   2.090   2.300   2.362   2.454   2.587   2.688   2.676   2.600   2.593   2.647   2.438   2.419
   196.00    2.042   2.033   2.182   2.147   2.407   2.256   2.169   2.193   2.266   2.314   2.302   2.161   2.035   1.982   2.040   1.848   2.049   2.062   1.990   2.194   2.306   2.460   2.469   2.257   2.179   2.195   2.196   2.121   2.186   2.368   2.127   2.015   1.905   1.936   2.026   2.050   2.115   2.257   2.202   2.308   2.168   2.263   2.260   2.269   2.236   2.369   2.303   2.179   1.891   1.989   2.117   2.227   2.283   2.307   2.389   2.317   2.190   2.087   2.208   2.120   2.326   2.448   2.451   2.283   2.395   2.680   2.458   2.562   2.513   2.551   2.523   2.566   2.550
   191.00    1.965   2.067   2.116   2.219   2.176   2.294   2.199   2.249   2.308   2.050   2.127   2.273   2.228   2.007   2.001   2.159   2.170   1.869   1.988   2.261   2.374   2.376   2.444   2.320   2.156   2.204   2.098   2.082   2.096   2.131   2.109   2.082   2.097   1.932   1.863   2.005   2.091   2.140   2.218   2.306   2.392   2.212   2.260   2.150   2.127   2.204   2.344   2.146   1.932   1.865   1.916   2.183   2.262   2.256   2.356   2.293   2.343   2.313   2.309   2.419   2.543   2.611   2.596   2.442   2.489   2.507   2.549   2.485   2.444   2.313   2.412   2.475   2.750
   186.00    2.124   2.259   2.113   2.104   2.175   2.166   2.253   2.126   2.208   2.138   2.172   2.250   2.062   2.202   2.225   2.046   2.005   1.995   2.012   2.219   2.319   2.516   2.616   2.413   2.307   2.165   2.130   2.117   2.196   2.221   2.192   2.122   2.137   1.908   2.096   2.012   2.112   2.299   2.315   2.205   2.385   2.254   2.171   2.158   2.154   2.157   2.226   2.206   1.973   1.917   2.026   2.235   2.191   2.160   2.262   2.286   2.312   2.303   2.293   2.501   2.609   2.670   2.698   2.451   2.354   2.319   2.297   2.349   2.390   2.413   2.396   2.534   2.664
   181.00    2.124   2.147   2.063   2.076   2.123   2.202   2.242   2.198   2.162   2.085   2.114   2.169   2.166   2.216   2.207   1.970   2.044   2.049   2.116   2.157   2.126   2.427   2.403   2.431   2.302   2.182   2.066   2.099   2.122   2.265   2.300   2.124   2.053   2.116   2.150   2.295   2.214   2.189   2.278   2.367   2.399   2.178   2.151   2.072   2.153   2.211   2.263   2.108   1.932   2.046   2.265   2.091   2.132   2.247   2.235   2.213   2.316   2.466   2.430   2.405   2.350   2.467   2.499   2.549   2.545   2.384   2.379   2.354   2.445   2.423   2.423   2.539   2.521
   176.00    2.045   2.195   2.121   2.000   2.016   1.993   2.184   2.212   2.219   2.150   2.180   2.107   2.302   2.322   2.283   2.110   2.008   1.984   2.062   2.099   2.254   2.356   2.213   2.229   2.078   2.123   2.001   2.020   2.181   2.238   2.247   2.119   2.153   2.183   2.312   2.395   2.328   2.187   2.378   2.279   2.278   2.209   2.138   2.137   2.182   2.286   2.325   2.157   2.226   2.178   2.129   2.053   2.081   2.190   2.282   2.318   2.363   2.354   2.287   2.405   2.480   2.474   2.404   2.400   2.569   2.474   2.446   2.259   2.340   2.384   2.434   2.606   2.678
   171.00    2.114   2.252   2.281   2.236   2.191   2.102   2.002   2.261   2.373   2.327   2.408   2.316   2.306   2.159   2.255   2.406   2.509   2.314   2.213   2.205   2.159   2.104   2.080   2.030   2.080   2.082   2.037   2.109   2.189   2.284   2.169   2.128   2.066   2.242   2.382   2.399   2.479   2.580   2.316   2.391   2.376   2.398   2.268   2.299   2.301   2.422   2.354   2.378   2.341   2.421   2.169   2.061   2.099   2.202   2.284   2.302   2.372   2.444   2.169   2.293   2.314   2.417   2.231   2.540   2.569   2.443   2.279   2.269   2.159   2.226   2.405   2.420   2.779
   166.00    2.118   2.335   2.267   2.354   2.383   2.258   2.092   2.234   2.302   2.367   2.491   2.464   2.414   2.443   2.268   2.451   2.399   2.457   2.299   2.176   1.993   1.989   1.802   1.839   1.931   2.090   2.073   1.987   2.196   2.116   2.251   2.232   2.128   2.199   2.321   2.139   2.448   2.552   2.500   2.540   2.376   2.468   2.400   2.326   2.472   2.533   2.507   2.348   2.333   2.281   2.396   2.359   2.229   2.140   2.378   2.424   2.579   2.425   2.240   2.252   2.320   2.290   2.325   2.259   2.393   2.443   2.350   2.482   2.444   2.366   2.415   2.625   2.624
   161.00    2.346   2.257   2.314   2.353   2.425   2.514   2.305   2.201   2.407   2.357   2.355   2.372   2.449   2.481   2.378   2.475   2.613   2.582   2.237   2.053   1.935   1.766   1.686   1.920   2.016   2.073   1.933   2.096   2.231   2.290   2.301   2.166   2.202   2.197   2.439   2.386   2.568   2.532   2.622   2.685   2.672   2.375   2.488   2.443   2.483   2.511   2.452   2.497   2.266   2.272   2.477   2.396   2.292   2.429   2.582   2.504   2.609   2.409   2.416   2.322   2.349   2.137   2.327   2.232   2.181   2.229   2.434   2.591   2.394   2.365   2.624   2.848   2.820
   156.00    2.350   2.565   2.476   2.378   2.418   2.529   2.393   2.199   2.309   2.220   2.241   2.431   2.458   2.627   2.342   2.225   2.529   2.469   2.298   2.270   2.159   1.967   1.850   1.831   1.919   1.949   1.824   1.956   2.026   2.176   2.166   2.008   2.167   2.376   2.363   2.317   2.419   2.456   2.570   2.477   2.469   2.499   2.478   2.448   2.471   2.433   2.352   2.326   2.368   2.438   2.804   2.730   2.549   2.468   2.580   2.484   2.419   2.339   2.362   2.289   2.328   2.308   2.388   2.444   2.397   2.258   2.305   2.402   2.315   2.303   2.605   2.839   3.035
   151.00    2.303   2.413   2.385   2.364   2.335   2.479   2.529   2.442   2.312   2.241   2.320   2.318   2.601   2.545   2.632   2.505   2.581   2.676   2.514   2.338   2.112   2.123   1.919   1.892   1.862   1.913   1.957   1.972   2.083   2.084   2.007   1.869   1.971   2.147   2.221   2.304   2.419   2.441   2.560   2.624   2.528   2.514   2.615   2.592   2.295   2.404   2.435   2.496   2.268   2.499   2.638   2.686   2.742   2.608   2.624   2.487   2.258   2.282   2.190   2.311   2.301   2.440   2.481   2.509   2.358   2.420   2.397   2.353   2.458   2.449   2.736   2.784   2.786
   146.00    2.203   2.178   2.339   2.385   2.616   2.364   2.506   2.405   2.246   2.383   2.518   2.582   2.586   2.694   2.745   2.694   2.715   2.679   2.506   2.321   2.209   2.067   1.981   1.883   1.938   1.914   1.839   2.043   2.072   1.923   1.995   1.925   1.985   2.039   2.161   2.308   2.402   2.538   2.631   2.590   2.547   2.628   2.703   2.643   2.497   2.450   2.345   2.418   2.394   2.577   2.730   2.790   2.666   2.598   2.639   2.598   2.416   2.301   2.176   2.318   2.558   2.377   2.407   2.506   2.538   2.437   2.337   2.577   2.472   2.544   2.554   2.696   2.747
   141.00    2.501   2.353   2.402   2.536   2.607   2.639   2.444   2.377   2.375   2.487   2.423   2.256   2.500   2.526   2.687   2.771   2.598   2.598   2.423   2.319   2.297   2.086   2.084   2.137   1.938   1.921   1.884   2.079   1.987   2.024   2.056   2.077   2.029   2.010   2.191   2.319   2.482   2.485   2.426   2.547   2.565   2.581   2.475   2.507   2.343   2.213   2.378   2.240   2.373   2.685   2.786   2.670   2.674   2.843   2.911   2.722   2.532   2.384   2.325   2.324   2.452   2.286   2.338   2.416   2.524   2.441   2.641   2.608   2.536   2.722   2.629   2.568   2.688
   136.00    2.605   2.507   2.543   2.586   2.427   2.536   2.576   2.434   2.485   2.305   2.392   2.405   2.424   2.533   2.627   2.849   2.723   2.557   2.362   2.111   2.076   2.205   2.022   2.038   2.020   1.821   1.939   2.092   2.056   2.225   2.154   2.211   2.179   2.106   2.151   2.363   2.463   2.594   2.530   2.521   2.582   2.560   2.577   2.503   2.353   2.214   2.261   2.421   2.468   2.621   2.775   2.845   2.772   2.902   2.964   2.755   2.667   2.604   2.417   2.333   2.300   2.406   2.479   2.657   2.638   2.549   2.688   2.703   2.742   2.783   2.676   2.693   2.695
   131.00    2.732   2.750   2.914   2.809   2.698   2.660   2.648   2.647   2.631   2.463   2.408   2.247   2.384   2.652   2.652   2.667   2.662   2.564   2.485   2.302   2.211   2.127   2.047   1.946   2.099   2.008   2.075   2.047   2.099   2.278   2.267   2.262   2.169   2.139   2.171   2.215   2.434   2.513   2.401   2.499   2.422   2.235   2.422   2.342   2.486   2.315   2.212   2.350   2.427   2.562   2.690   2.756   2.691   2.921   2.884   2.866   2.790   2.613   2.516   2.405   2.365   2.272   2.400   2.540   2.605   2.602   2.714   2.542   2.616   2.685   2.669   2.582   2.571
   126.00    2.635   2.656   2.780   2.853   2.627   2.543   2.699   2.620   2.555   2.587   2.439   2.335   2.397   2.585   2.427   2.536   2.564   2.518   2.390   2.206   2.138   2.028   2.135   2.187   2.050   2.127   2.272   2.178   2.183   2.192   2.392   2.511   2.227   2.159   2.138   2.107   2.309   2.271   2.451   2.351   2.307   2.294   2.299   2.349   2.340   2.407   2.291   2.274   2.424   2.795   2.631   2.821   2.776   2.712   2.839   2.827   2.911   2.770   2.695   2.480   2.597   2.519   2.476   2.684   2.691   2.728   2.650   2.738   2.821   2.847   2.501   2.428   2.456
   121.00    2.668   2.658   2.700   2.745   2.570   2.585   2.662   2.680   2.785   2.470   2.265   2.478   2.432   2.323   2.299   2.306   2.506   2.473   2.483   2.138   2.268   2.164   2.226   2.175   1.981   1.949   2.249   2.317   2.301   2.268   2.297   2.381   2.146   2.003   2.248   2.515   2.261   2.392   2.303   2.295   2.327   2.342   2.266   2.190   2.318   2.366   2.326   2.295   2.391   2.670   2.738   2.870   2.917   2.664   2.692   2.927   2.919   2.837   2.698   2.779   2.535   2.597   2.710   2.551   2.599   2.741   2.665   2.507   2.568   2.576   2.521   2.340   2.525
   116.00    2.574   2.654   2.498   2.693   2.562   2.568   2.779   2.712   2.462   2.306   2.469   2.475   2.563   2.259   2.106   2.191   2.337   2.225   2.238   2.228   2.239   2.084   2.160   2.042   2.037   2.079   2.239   2.433   2.309   2.161   2.161   2.359   2.179   1.962   2.129   2.302   2.252   2.319   2.180   2.187   2.375   2.412   2.253   2.394   2.370   2.381   2.360   2.370   2.532   2.688   2.894   2.686   2.854   2.862   2.959   2.887   2.869   2.714   2.648   2.593   2.537   2.672   2.702   2.595   2.667   2.676   2.647   2.619   2.685   2.584   2.440   2.400   2.468
   111.00    2.658   2.486   2.411   2.678   2.899   2.616   2.695   2.752   2.500   2.543   2.407   2.492   2.395   2.243   2.085   2.204   2.247   2.220   1.989   2.077   2.162   2.131   2.258   2.072   2.153   2.036   2.079   2.113   2.230   2.135   2.179   2.266   2.135   1.992   2.024   1.958   2.166   2.156   2.136   2.142   2.323   2.341   2.413   2.516   2.377   2.384   2.498   2.536   2.598   2.854   2.881   2.983   2.835   2.764   2.900   3.041   2.771   2.532   2.528   2.429   2.348   2.576   2.597   2.599   2.850   2.786   2.732   2.597   2.518   2.717   2.598   2.417   2.389
   106.00    2.519   2.569   2.625   2.622   2.854   2.818   2.621   2.325   2.352   2.595   2.502   2.526   2.442   2.291   1.956   2.072   2.206   2.209   2.065   2.156   2.140   2.149   2.158   2.087   2.075   2.133   2.028   2.131   2.178   2.204   2.162   2.272   2.225   2.180   2.086   2.002   2.040   2.146   2.035   2.233   2.454   2.349   2.487   2.395   2.382   2.659   2.472   2.526   2.612   2.796   2.814   2.956   2.762   2.752   2.747   2.837   2.754   2.470   2.581   2.557   2.468   2.582   2.571   2.512   2.639   2.649   2.642   2.566   2.686   2.857   2.836   2.620   2.465
   101.00    2.536   2.666   2.717   2.763   2.829   2.766   2.593   2.396   2.531   2.532   2.578   2.479   2.415   2.284   2.160   2.240   2.325   2.357   2.250   2.021   2.040   2.105   2.139   2.005   2.056   2.078   2.029   2.039   2.170   2.093   2.171   2.260   2.214   2.213   2.174   2.116   2.141   2.057   2.062   2.324   2.563   2.397   2.534   2.363   2.398   2.389   2.565   2.535   2.589   2.648   2.781   2.883   2.706   2.585   2.779   2.654   2.534   2.422   2.513   2.505   2.561   2.542   2.667   2.554   2.518   2.437   2.640   2.579   2.700   2.807   2.779   2.754   2.502
    96.00    2.531   2.736   2.748   2.692   2.717   2.608   2.671   2.503   2.724   2.618   2.423   2.350   2.277   2.389   2.268   2.308   2.252   2.209   2.028   2.106   2.095   2.076   1.970   2.077   2.044   2.286   2.112   2.081   1.915   2.089   2.083   2.136   2.298   2.058   2.088   2.315   2.351   2.237   2.198   2.313   2.490   2.321   2.407   2.339   2.334   2.295   2.296   2.496   2.481   2.472   2.745   2.893   2.771   2.688   2.590   2.673   2.663   2.581   2.538   2.484   2.634   2.532   2.410   2.468   2.595   2.480   2.706   2.901   2.704   2.770   2.717   2.687   2.615
    91.00    2.457   2.603   2.757   2.641   2.684   2.642   2.655   2.451   2.621   2.595   2.546   2.318   2.314   2.264   2.185   2.137   2.094   2.034   2.050   2.012   2.083   2.154   2.013   2.039   2.085   2.263   2.113   2.065   1.898   1.923   2.058   2.061   2.213   2.139   2.149   2.382   2.435   2.348   2.317   2.257   2.359   2.397   2.273   2.225   2.251   2.408   2.480   2.541   2.487   2.651   2.690   2.817   2.839   2.752   2.663   2.607   2.784   2.624   2.709   2.558   2.468   2.559   2.519   2.610   2.591   2.596   2.618   2.660   2.584   2.666   2.423   2.442   2.431
    86.00    2.369   2.435   2.556   2.334   2.598   2.760   2.443   2.594   2.643   2.694   2.606   2.389   2.311   2.253   2.189   1.862   1.989   2.037   1.992   1.951   1.951   2.078   1.929   2.056   2.116   2.074   2.278   2.198   1.933   1.998   1.938   2.080   1.963   2.102   2.303   2.300   2.382   2.372   2.184   2.435   2.465   2.373   2.382   2.187   2.297   2.292   2.350   2.370   2.383   2.501   2.684   2.684   2.778   2.617   2.624   2.572   2.498   2.538   2.394   2.403   2.547   2.614   2.683   2.535   2.518   2.670   2.548   2.547   2.582   2.507   2.429   2.351   2.146
    81.00    2.305   2.417   2.317   2.294   2.541   2.707   2.573   2.554   2.653   2.516   2.534   2.311   2.253   2.083   2.117   2.013   2.015   1.986   1.890   2.017   2.011   1.992   2.000   1.980   1.964   2.032   2.098   2.262   2.075   2.102   2.035   2.080   2.130   2.125   2.229   2.373   2.445   2.348   2.364   2.451   2.431   2.469   2.399   2.335   2.258   2.212   2.331   2.341   2.403   2.481   2.620   2.648   2.711   2.626   2.415   2.444   2.380   2.370   2.378   2.404   2.365   2.540   2.625   2.693   2.750   2.772   2.574   2.658   2.544   2.355   2.275   2.262   2.061
    76.00    2.323   2.339   2.250   2.221   2.409   2.643   2.555   2.547   2.498   2.438   2.417   2.316   2.267   2.140   2.150   1.881   1.853   1.943   1.768   1.795   2.033   2.029   2.012   2.186   2.191   2.175   2.262   2.248   2.129   1.786   1.789   1.967   2.017   2.182   2.237   2.246   2.214   2.185   2.257   2.379   2.599   2.712   2.553   2.329   2.427   2.494   2.370   2.377   2.513   2.678   2.647   2.511   2.571   2.488   2.484   2.433   2.202   2.248   2.323   2.288   2.294   2.359   2.385   2.569   2.623   2.739   2.628   2.487   2.467   2.402   2.292   2.269   2.070
    71.00    2.126   2.089   2.123   2.199   2.307   2.539   2.493   2.320   2.341   2.458   2.484   2.428   2.276   2.134   2.058   1.946   1.981   1.912   1.920   1.896   1.966   1.949   2.035   2.182   2.262   2.065   2.009   2.063   1.999   1.865   1.695   1.888   2.034   1.891   2.136   2.065   2.179   2.062   2.072   2.429   2.461   2.491   2.531   2.492   2.409   2.308   2.406   2.598   2.582   2.659   2.703   2.485   2.442   2.502   2.495   2.395   2.103   2.252   2.251   2.068   2.171   2.241   2.278   2.281   2.399   2.428   2.363   2.185   2.355   2.360   2.267   2.226   2.120
    66.00    1.941   1.976   2.049   1.984   2.114   2.248   2.375   2.225   2.273   2.279   2.417   2.331   2.208   2.049   2.073   2.139   2.116   2.049   1.949   2.017   1.854   1.853   2.001   2.116   2.068   1.984   2.030   1.953   1.884   1.810   1.691   1.825   1.922   1.995   2.074   2.021   2.145   2.023   2.176   2.181   2.367   2.315   2.457   2.687   2.640   2.529   2.542   2.684   2.629   2.649   2.638   2.433   2.413   2.362   2.300   2.358   2.342   2.150   2.272   1.979   2.066   2.040   2.029   2.058   2.179   2.173   2.369   2.398   2.417   2.375   2.164   2.242   2.330
    61.00    1.864   1.897   2.003   1.892   1.888   2.088   2.256   2.226   2.300   2.480   2.583   2.411   2.209   1.981   1.935   2.025   2.060   1.997   2.014   2.003   1.992   1.828   1.982   1.985   1.879   1.895   1.835   1.888   1.908   1.706   1.851   1.798   2.022   2.139   2.015   1.964   2.119   2.059   1.977   2.063   2.252   2.360   2.454   2.444   2.439   2.476   2.586   2.650   2.542   2.571   2.414   2.453   2.220   2.119   2.195   2.190   2.218   2.301   2.236   1.963   2.159   2.035   2.033   2.131   2.132   2.256   2.385   2.256   2.331   2.197   2.170   2.073   2.252
    56.00    1.881   1.760   1.898   1.899   1.852   1.989   2.140   2.156   2.286   2.385   2.378   2.153   2.264   2.023   2.077   2.104   2.052   1.988   2.035   2.049   2.151   2.084   2.045   1.891   1.789   1.733   1.827   1.983   1.996   1.958   2.035   2.060   2.174   1.948   1.995   2.154   2.224   1.909   1.959   2.150   2.385   2.291   2.489   2.507   2.490   2.454   2.503   2.642   2.377   2.380   2.305   2.139   2.100   2.067   2.059   2.024   2.167   2.157   2.126   1.884   2.042   2.038   1.905   2.061   2.307   2.296   2.249   2.311   2.415   2.180   2.121   2.073   2.254
    51.00    1.860   1.854   1.928   1.945   1.945   1.892   2.140   2.214   2.155   2.237   2.173   2.122   1.990   2.080   2.141   1.945   2.069   2.021   1.974   2.011   2.144   2.042   1.988   1.920   1.841   1.797   1.863   1.818   1.904   2.001   2.157   2.016   2.157   2.109   2.017   2.097   2.042   2.043   2.116   2.136   2.184   2.259   2.402   2.511   2.316   2.506   2.613   2.648   2.378   2.410   2.239   2.009   2.023   1.859   1.739   1.859   2.053   1.956   1.983   2.009   2.003   1.992   2.073   2.141   2.104   2.270   2.226   2.280   2.299   2.219   2.190   2.075   2.044
    46.00    1.875   1.937   1.982   2.026   2.027   2.013   2.086   2.119   2.245   2.242   2.137   1.969   2.190   2.300   2.201   2.065   2.097   2.173   1.860   1.886   1.942   2.050   1.915   2.086   2.100   1.973   1.907   1.877   1.850   1.898   1.928   1.948   2.010   2.084   1.891   1.985   2.023   2.285   2.190   2.154   2.250   2.180   2.303   2.313   2.280   2.389   2.579   2.514   2.404   2.293   2.224   2.162   1.943   1.915   1.809   1.813   2.036   2.016   1.973   1.998   1.996   1.988   1.950   2.082   2.063   2.170   2.232   2.114   2.021   2.213   2.055   2.135   2.105
    41.00    1.984   2.060   2.077   2.145   2.049   2.092   2.066   2.019   2.184   2.129   2.088   2.103   2.178   2.133   2.217   2.053   2.171   2.179   1.953   1.982   2.013   1.943   1.913   1.999   2.016   1.941   1.948   2.057   1.969   2.006   1.893   1.933   2.139   2.148   2.130   2.108   2.091   2.285   2.297   2.231   2.153   2.056   2.175   2.327   2.201   2.274   2.479   2.564   2.398   2.272   2.227   2.170   2.093   1.924   1.843   1.957   1.788   1.970   1.951   1.889   1.839   1.866   1.940   2.046   2.076   2.116   2.079   2.062   1.891   1.964   1.903   2.040   2.121
    36.00    2.074   2.145   2.262   2.362   2.122   2.326   2.192   2.144   2.217   2.200   2.181   2.099   2.067   2.240   2.060   2.136   2.113   2.082   1.980   1.935   2.014   1.998   2.164   2.020   2.113   1.829   1.930   2.047   2.029   1.858   1.831   2.101   1.994   2.075   2.167   2.174   2.184   2.220   2.165   2.297   2.124   2.254   2.153   2.358   2.394   2.537   2.530   2.657   2.488   2.313   2.062   2.160   2.165   2.038   1.803   1.901   1.921   1.994   1.823   1.880   1.868   1.902   2.036   2.286   2.167   2.225   2.088   2.087   1.821   1.852   1.867   1.955   2.080
    31.00    2.106   2.277   2.407   2.339   2.393   2.336   2.232   2.255   2.253   2.270   2.052   2.056   2.210   2.154   2.020   2.111   1.901   1.867   1.990   2.008   1.912   2.100   2.135   2.262   2.109   2.096   2.048   2.018   1.797   1.906   1.844   2.063   2.085   2.015   2.098   2.233   2.391   2.332   2.197   2.133   2.286   2.513   2.461   2.333   2.384   2.418   2.546   2.586   2.559   2.404   2.040   2.066   2.069   2.009   2.102   1.921   1.828   1.963   2.013   2.035   2.266   2.152   2.286   2.320   2.228   2.391   2.256   1.940   1.708   1.792   1.844   1.928   1.955
    26.00    2.225   2.149   2.239   2.263   2.350   2.271   2.139   2.271   2.171   2.233   2.210   2.208   2.244   2.360   2.091   2.105   1.908   1.913   2.049   1.993   1.900   2.070   2.052   2.093   2.025   2.136   2.102   2.006   2.008   1.944   1.908   1.924   2.141   2.115   2.230   2.262   2.594   2.435   2.160   2.184   2.496   2.385   2.471   2.389   2.445   2.564   2.376   2.479   2.493   2.394   2.144   2.063   2.032   1.997   2.111   1.930   1.988   2.063   2.107   2.077   2.253   2.363   2.224   2.353   2.410   2.417   2.280   1.973   1.868   1.721   1.709   1.784   1.889
    21.00    2.155   2.131   2.261   2.290   2.116   2.238   2.152   2.135   2.002   2.119   2.199   2.371   2.435   2.314   2.207   2.088   2.134   2.126   2.145   1.940   1.955   1.983   1.997   1.950   2.236   2.193   2.226   2.047   1.919   2.062   2.079   2.012   2.193   2.084   2.065   2.266   2.592   2.459   2.409   2.394   2.486   2.398   2.247   2.396   2.553   2.446   2.501   2.573   2.453   2.400   2.191   2.028   2.107   2.163   2.083   2.065   2.136   2.303   2.321   2.284   2.183   2.328   2.153   2.317   2.398   2.499   2.303   2.120   1.938   1.817   1.694   1.735   1.968
    16.00    2.358   2.333   2.319   2.264   2.048   2.095   2.023   2.010   2.067   2.252   2.255   2.383   2.343   2.274   2.161   1.968   2.027   2.165   2.035   2.234   2.126   2.009   2.049   2.134   2.370   2.276   2.119   2.084   2.077   2.027   2.066   2.017   2.116   2.155   2.102   2.320   2.484   2.565   2.460   2.547   2.597   2.281   2.390   2.496   2.559   2.530   2.655   2.477   2.373   2.268   2.330   2.169   2.193   2.212   2.156   2.178   2.447   2.406   2.452   2.340   2.369   2.421   2.336   2.511   2.527   2.408   2.179   2.144   1.946   1.776   1.721   1.828   1.900
    11.00    2.259   2.097   2.026   2.188   2.006   1.981   1.893   2.044   2.201   2.433   2.364   2.418   2.157   2.100   1.995   1.920   2.062   2.080   2.220   2.164   2.158   2.209   2.277   2.209   2.297   2.203   2.154   2.087   1.924   2.014   2.040   2.172   2.071   2.267   2.024   2.268   2.413   2.257   2.540   2.524   2.508   2.559   2.534   2.587   2.787   2.733   2.606   2.593   2.497   2.564   2.285   2.266   2.228   2.197   2.317   2.446   2.444   2.581   2.690   2.752   2.546   2.528   2.405   2.636   2.622   2.465   2.140   2.046   2.023   1.886   1.906   1.861   1.859
     6.00    2.243   2.228   2.037   2.052   2.113   1.970   2.064   2.094   2.268   2.348   2.238   2.339   2.029   2.062   2.051   2.065   2.018   2.237   2.234   2.222   2.151   2.296   2.292   2.276   2.251   2.151   2.281   2.155   2.131   2.013   2.127   2.102   2.134   2.267   2.266   2.215   2.156   2.320   2.411   2.574   2.539   2.537   2.442   2.480   2.656   2.819   2.533   2.454   2.328   2.514   2.395   2.118   2.133   2.263   2.404   2.470   2.613   2.611   2.534   2.566   2.451   2.527   2.410   2.581   2.633   2.293   2.341   2.259   2.103   2.032   2.015   1.930   1.874
     1.00    2.301   2.308   2.377   2.405   2.186   1.978   2.051   2.130   2.243   2.105   2.339   2.108   2.048   2.041   2.260   2.182   2.224   2.181   2.201   2.108   2.180   2.257   2.220   2.349   2.345   2.338   2.189   2.080   2.170   2.034   2.097   1.976   2.116   2.150   2.103   2.142   2.318   2.293   2.410   2.225   2.428   2.423   2.626   2.571   2.680   2.717   2.596   2.594   2.679   2.493   2.388   2.293   2.266   2.432   2.453   2.472   2.467   2.534   2.525   2.505   2.349   2.360   2.292   2.508   2.488   2.422   2.216   2.139   2.132   2.021   2.041   2.050   2.031

   Height   Standard deviation at grid points for the v component:
   301.00    1.759   1.806   1.726   1.751   1.796   1.841   1.852   1.822   1.789   1.718   1.674   1.608   1.688   1.628   1.628   1.638   1.641   1.578   1.738   1.776   1.868   1.849   1.958   1.969   1.863   1.940   1.817   1.729   1.748   1.678   1.757   1.791   1.724   1.760   1.721   1.742   1.779   1.668   1.663   1.650   1.704   1.731   1.764   1.794   1.867   1.892   1.914   1.810   1.958   1.935   1.972   1.909   1.909   1.953   1.819   1.866   1.726   1.858   1.820   1.939   1.958   1.921   1.874   1.900   1.937   1.824   1.744   1.712   1.806   1.966   2.154   2.306   2.092
   296.00    1.795   1.712   1.762   1.764   1.889   1.863   1.862   1.816   1.752   1.651   1.698   1.666   1.585   1.635   1.649   1.612   1.653   1.663   1.821   1.910   1.904   1.854   1.962   1.894   1.891   1.884   1.826   1.801   1.776   1.814   1.789   1.751   1.778   1.787   1.757   1.646   1.708   1.738   1.772   1.699   1.794   1.802   1.766   1.733   1.880   1.976   1.899   1.938   1.895   1.949   1.930   1.863   1.948   1.859   1.887   1.785   1.815   1.807   1.817   1.873   1.903   1.936   1.892   1.898   1.939   1.914   1.848   1.730   1.824   1.888   2.148   2.177   2.090
   291.00    1.789   1.779   1.775   1.790   1.791   1.757   1.808   1.911   1.789   1.698   1.685   1.763   1.664   1.655   1.801   1.760   1.680   1.711   1.642   1.788   1.926   1.911   1.790   1.762   1.879   2.009   1.902   1.759   1.793   1.740   1.647   1.716   1.712   1.788   1.680   1.798   1.776   1.774   1.738   1.720   1.759   1.799   1.852   1.689   1.778   1.871   1.947   2.004   1.979   1.861   1.824   1.814   1.819   1.737   1.752   1.763   1.710   1.850   1.751   1.899   1.827   1.810   1.850   1.883   1.877   1.878   1.722   1.651   1.850   2.004   2.088   2.050   2.064
   286.00    1.851   1.832   1.846   1.794   1.826   1.706   1.801   1.947   1.944   1.806   1.846   1.803   1.821   1.843   1.890   1.736   1.756   1.763   1.694   1.758   1.882   1.830   1.835   1.868   1.946   1.975   1.922   1.782   1.793   1.799   1.815   1.747   1.806   1.794   1.758   1.780   1.774   1.747   1.715   1.647   1.782   1.794   1.865   1.775   1.814   1.934   1.964   1.928   1.923   1.919   1.760   1.727   1.764   1.699   1.684   1.694   1.687   1.757   1.752   1.908   1.896   1.780   1.823   1.887   1.757   1.794   1.777   1.731   1.775   1.973   1.991   1.905   1.877
   281.00    1.784   1.808   1.826   1.695   1.748   1.783   1.840   1.984   1.917   1.815   1.770   1.927   1.960   1.905   1.991   1.988   1.893   1.852   1.765   1.908   1.866   1.873   1.940   1.995   2.035   1.946   1.849   1.852   1.951   1.926   1.875   1.872   1.843   1.768   1.678   1.670   1.747   1.802   1.794   1.757   1.717   1.744   1.827   1.803   1.778   1.802   1.846   1.926   1.948   1.829   1.778   1.695   1.656   1.688   1.675   1.756   1.762   1.660   1.732   1.779   1.909   1.841   1.983   1.844   1.742   1.857   1.836   1.788   1.751   1.872   1.958   2.022   1.890
   276.00    1.715   1.831   1.780   1.801   1.646   1.636   1.762   1.811   1.824   1.859   2.038   2.061   2.100   2.127   2.106   2.141   2.128   1.892   1.948   1.962   1.851   1.922   2.027   1.962   2.045   2.039   1.908   1.883   1.930   1.963   2.029   1.829   1.648   1.688   1.602   1.700   1.793   1.794   1.684   1.695   1.689   1.728   1.865   1.732   1.749   1.809   1.807   1.780   1.866   1.836   1.881   1.741   1.646   1.729   1.751   1.722   1.771   1.685   1.714   1.655   1.791   1.913   1.920   1.946   1.745   1.769   1.803   1.737   1.789   1.814   1.850   1.837   1.758
   271.00    1.778   1.754   1.784   1.778   1.742   1.742   1.652   1.870   1.950   1.924   1.997   2.191   2.123   2.057   2.013   2.061   2.103   2.067   1.944   2.000   1.902   2.036   1.983   1.994   1.987   2.006   1.928   1.886   1.885   1.874   1.966   1.898   1.690   1.702   1.624   1.798   1.794   1.713   1.643   1.694   1.760   1.687   1.752   1.685   1.747   1.833   1.751   1.786   1.850   1.832   1.887   1.696   1.742   1.777   1.822   1.735   1.721   1.726   1.716   1.833   1.749   1.896   1.964   1.913   1.803   1.780   1.818   1.802   1.675   1.691   1.718   1.761   1.673
   266.00    1.724   1.745   1.753   1.809   1.790   1.691   1.780   1.893   1.808   1.856   1.954   2.038   1.997   2.027   2.116   2.068   2.034   2.055   1.973   1.885   2.009   1.973   2.012   1.995   1.922   1.939   2.022   1.930   1.807   1.885   1.894   1.886   1.782   1.704   1.643   1.739   1.754   1.674   1.694   1.674   1.721   1.829   1.732   1.722   1.730   1.805   1.687   1.719   1.834   1.839   1.901   1.704   1.758   1.789   1.911   1.846   1.797   1.857   1.901   1.854   1.837   1.877   1.875   1.878   1.731   1.715   1.706   1.772   1.708   1.661   1.720   1.638   1.642
   261.00    1.778   1.839   1.860   1.863   1.803   1.699   1.749   1.767   1.707   1.885   1.935   1.922   2.045   1.997   1.960   2.029   2.013   1.974   1.967   1.990   2.038   2.029   2.064   2.013   1.891   1.956   2.021   1.942   1.888   1.851   1.761   1.781   1.800   1.759   1.717   1.718   1.652   1.735   1.774   1.684   1.720   1.681   1.769   1.756   1.774   1.753   1.758   1.721   1.732   1.735   1.816   1.777   1.723   1.882   1.961   1.981   1.915   1.969   1.973   1.882   1.832   1.786   1.891   1.810   1.690   1.768   1.795   1.754   1.592   1.663   1.698   1.607   1.718
   256.00    1.855   1.923   1.850   1.813   1.769   1.729   1.709   1.712   1.775   1.752   1.881   2.013   1.993   2.027   2.004   2.062   1.859   1.945   1.983   2.096   1.979   1.992   2.032   1.971   1.954   1.852   1.787   1.818   1.874   1.849   1.772   1.761   1.729   1.732   1.704   1.717   1.657   1.659   1.773   1.664   1.671   1.689   1.638   1.735   1.796   1.795   1.655   1.721   1.752   1.759   1.814   1.752   1.810   1.771   1.920   1.902   1.906   1.813   1.935   1.906   1.880   1.864   1.870   1.828   1.803   1.787   1.734   1.617   1.743   1.640   1.707   1.710   1.703
   251.00    1.723   1.803   1.915   1.871   1.838   1.759   1.716   1.684   1.657   1.709   1.703   1.872   1.884   1.942   1.925   2.021   1.859   1.866   1.864   2.042   2.065   2.007   2.053   1.913   1.847   1.782   1.776   1.914   1.847   1.804   1.717   1.615   1.778   1.735   1.724   1.697   1.647   1.671   1.695   1.554   1.650   1.720   1.633   1.627   1.683   1.720   1.732   1.704   1.766   1.786   1.733   1.721   1.717   1.672   1.837   1.901   1.977   1.846   1.954   1.811   1.869   1.787   1.750   1.667   1.636   1.689   1.654   1.579   1.617   1.668   1.736   1.750   1.739
   246.00    1.758   1.733   1.792   1.887   1.810   1.694   1.734   1.743   1.689   1.708   1.724   1.754   1.805   1.768   1.851   1.830   1.891   1.795   1.829   1.961   2.033   2.039   1.983   1.976   1.948   1.781   1.823   1.830   1.796   1.692   1.703   1.602   1.677   1.730   1.729   1.518   1.573   1.716   1.773   1.655   1.644   1.768   1.629   1.690   1.720   1.807   1.747   1.773   1.789   1.804   1.714   1.654   1.722   1.782   1.741   1.903   1.991   1.957   1.879   1.784   1.729   1.727   1.679   1.632   1.634   1.621   1.644   1.616   1.691   1.709   1.729   1.832   1.845
   241.00    1.783   1.670   1.763   1.867   1.798   1.800   1.783   1.713   1.807   1.848   1.774   1.817   1.810   1.740   1.771   1.855   1.784   1.777   1.907   1.871   1.911   1.935   1.863   1.843   1.832   1.878   1.835   1.801   1.853   1.709   1.660   1.527   1.617   1.640   1.672   1.597   1.538   1.553   1.618   1.630   1.690   1.645   1.561   1.633   1.677   1.654   1.749   1.792   1.682   1.755   1.824   1.673   1.738   1.716   1.818   1.913   1.833   1.918   1.856   1.848   1.714   1.613   1.637   1.613   1.617   1.638   1.548   1.552   1.735   1.763   1.807   1.806   1.879
   236.00    1.809   1.706   1.762   1.869   1.767   1.775   1.714   1.789   1.859   1.841   1.844   1.800   1.751   1.780   1.726   1.807   1.722   1.831   1.846   1.947   1.916   1.818   1.798   1.791   1.815   1.874   1.871   1.779   1.881   1.826   1.789   1.624   1.593   1.670   1.595   1.729   1.755   1.605   1.649   1.725   1.722   1.771   1.635   1.599   1.712   1.657   1.637   1.757   1.783   1.765   1.793   1.727   1.687   1.709   1.781   1.818   1.913   1.925   1.783   1.824   1.742   1.626   1.706   1.636   1.633   1.620   1.586   1.595   1.748   1.693   1.745   1.759   1.870
   231.00    1.863   1.817   1.753   1.803   1.777   1.704   1.728   1.678   1.834   1.914   1.839   1.788   1.708   1.658   1.783   1.850   1.833   1.930   1.963   1.826   1.823   1.707   1.727   1.735   1.746   1.794   1.959   1.905   1.897   1.811   1.860   1.747   1.694   1.672   1.592   1.608   1.605   1.708   1.713   1.669   1.692   1.669   1.718   1.744   1.777   1.703   1.650   1.729   1.805   1.741   1.793   1.814   1.796   1.776   1.842   1.853   1.919   1.844   1.823   1.832   1.726   1.626   1.653   1.710   1.672   1.647   1.551   1.608   1.678   1.705   1.808   1.907   1.896
   226.00    1.839   1.864   1.933   1.765   1.837   1.804   1.683   1.783   1.783   1.828   1.852   1.746   1.679   1.652   1.725   1.778   1.780   1.956   1.961   1.830   1.715   1.597   1.728   1.815   1.810   1.857   1.962   1.880   1.841   1.942   1.878   1.776   1.801   1.701   1.646   1.615   1.584   1.659   1.675   1.695   1.739   1.762   1.696   1.745   1.703   1.693   1.700   1.794   1.827   1.779   1.780   1.841   1.823   1.806   1.902   1.949   1.931   1.893   1.807   1.833   1.749   1.684   1.634   1.652   1.650   1.592   1.558   1.586   1.651   1.760   1.755   1.865   1.899
   221.00    1.887   1.849   1.845   1.864   1.780   1.827   1.781   1.754   1.800   1.784   1.789   1.707   1.704   1.599   1.676   1.748   1.907   2.004   1.850   1.786   1.645   1.721   1.708   1.842   1.878   1.949   1.851   1.845   1.863   1.882   2.024   1.819   1.837   1.710   1.559   1.708   1.716   1.639   1.645   1.799   1.753   1.744   1.742   1.656   1.690   1.660   1.845   1.879   1.893   1.792   1.720   1.689   1.766   1.772   1.842   1.959   1.944   1.925   1.888   1.802   1.717   1.636   1.634   1.626   1.617   1.693   1.714   1.722   1.694   1.783   1.705   1.722   1.840
   216.00    1.790   1.774   1.796   1.756   1.821   1.756   1.828   1.782   1.779   1.793   1.811   1.733   1.700   1.713   1.644   1.757   1.818   1.907   1.875   1.671   1.730   1.750   1.783   1.837   1.816   1.948   1.912   1.877   1.888   1.906   2.050   2.049   1.864   1.708   1.633   1.683   1.721   1.591   1.642   1.687   1.701   1.716   1.656   1.677   1.651   1.673   1.851   1.880   1.773   1.751   1.680   1.738   1.729   1.720   1.883   1.962   1.952   1.933   1.892   1.761   1.725   1.605   1.575   1.635   1.622   1.765   1.774   1.822   1.699   1.682   1.641   1.769   1.868
   211.00    1.801   1.800   1.823   1.850   1.847   1.850   1.853   1.782   1.753   1.747   1.656   1.714   1.740   1.694   1.714   1.741   1.787   1.797   1.875   1.716   1.757   1.748   1.762   1.755   1.861   1.830   1.949   1.934   1.892   1.818   1.904   1.993   1.893   1.827   1.699   1.614   1.611   1.637   1.598   1.573   1.682   1.617   1.550   1.539   1.634   1.735   1.741   1.768   1.741   1.794   1.757   1.692   1.789   1.856   1.928   1.869   1.935   1.868   1.847   1.717   1.691   1.571   1.511   1.613   1.568   1.758   1.708   1.794   1.779   1.781   1.689   1.866   1.956
   206.00    1.697   1.764   1.842   1.909   1.879   1.866   1.807   1.815   1.756   1.643   1.621   1.762   1.731   1.638   1.581   1.768   1.804   1.892   1.785   1.770   1.755   1.807   1.782   1.787   1.851   1.820   2.018   1.942   1.940   1.860   1.828   1.957   1.924   1.806   1.778   1.669   1.644   1.738   1.637   1.583   1.631   1.594   1.592   1.591   1.500   1.625   1.653   1.664   1.727   1.761   1.741   1.798   1.793   1.798   1.871   1.847   1.862   1.930   1.870   1.848   1.756   1.705   1.646   1.516   1.592   1.641   1.633   1.683   1.749   1.688   1.687   1.834   1.986
   201.00    1.760   1.737   1.760   1.835   1.897   1.813   1.768   1.779   1.669   1.588   1.708   1.690   1.727   1.689   1.604   1.793   1.851   1.813   1.828   1.727   1.725   1.884   1.849   1.816   1.886   1.885   1.954   1.988   1.852   1.857   1.817   1.969   1.768   1.813   1.778   1.768   1.828   1.856   1.695   1.630   1.587   1.579   1.583   1.649   1.733   1.596   1.683   1.738   1.804   1.870   1.769   1.773   1.756   1.735   1.818   1.742   1.881   1.824   1.900   1.890   1.740   1.709   1.710   1.658   1.652   1.675   1.718   1.699   1.767   1.718   1.748   1.907   1.976
   196.00    1.785   1.757   1.810   1.834   1.830   1.828   1.802   1.721   1.665   1.673   1.670   1.684   1.691   1.670   1.712   1.735   1.753   1.745   1.850   1.763   1.805   1.871   1.830   1.826   1.807   1.746   1.809   1.943   1.886   1.827   1.809   1.814   1.900   1.878   1.808   1.800   1.905   1.806   1.713   1.620   1.555   1.606   1.687   1.663   1.651   1.675   1.684   1.751   1.793   1.814   1.740   1.747   1.630   1.653   1.695   1.790   1.722   1.715   1.829   1.882   1.759   1.715   1.700   1.701   1.727   1.767   1.837   1.801   1.714   1.729   1.810   1.799   1.831
   191.00    1.806   1.926   1.868   1.850   1.817   1.826   1.770   1.677   1.848   1.723   1.608   1.591   1.675   1.619   1.595   1.649   1.735   1.807   1.853   1.790   1.687   1.849   1.919   1.848   1.856   1.838   1.785   1.822   1.805   1.911   1.893   1.917   1.887   1.850   1.791   1.824   1.831   1.723   1.593   1.634   1.642   1.714   1.669   1.652   1.648   1.637   1.692   1.789   1.725   1.689   1.772   1.726   1.623   1.558   1.626   1.696   1.612   1.680   1.714   1.640   1.689   1.701   1.688   1.698   1.770   1.705   1.885   1.863   1.748   1.712   1.727   1.835   1.689
   186.00    1.932   2.014   1.935   1.832   1.836   1.851   1.833   1.833   1.866   1.802   1.666   1.608   1.697   1.653   1.612   1.598   1.700   1.823   1.761   1.638   1.720   1.831   1.958   1.912   1.899   1.831   1.990   1.962   1.846   1.856   1.713   1.789   1.877   1.891   1.812   1.861   1.769   1.671   1.667   1.582   1.602   1.613   1.714   1.658   1.591   1.622   1.680   1.730   1.759   1.720   1.694   1.731   1.749   1.667   1.661   1.687   1.598   1.613   1.628   1.735   1.727   1.701   1.875   1.856   1.683   1.676   1.694   1.774   1.750   1.739   1.806   1.721   1.703
   181.00    1.999   2.027   2.127   1.939   1.943   1.892   1.744   1.689   1.739   1.625   1.675   1.614   1.691   1.629   1.677   1.746   1.693   1.781   1.711   1.688   1.683   1.811   1.897   1.898   1.826   1.880   1.973   1.867   1.877   1.784   1.707   1.701   1.786   1.859   1.849   1.825   1.742   1.708   1.685   1.645   1.588   1.688   1.636   1.605   1.592   1.721   1.740   1.745   1.766   1.748   1.785   1.700   1.664   1.674   1.716   1.662   1.665   1.683   1.715   1.720   1.704   1.705   1.792   1.807   1.768   1.726   1.764   1.788   1.610   1.703   1.686   1.777   1.682
   176.00    1.976   2.041   2.080   2.064   2.023   1.957   1.850   1.776   1.720   1.619   1.663   1.694   1.674   1.607   1.726   1.781   1.795   1.775   1.804   1.738   1.776   1.907   1.828   1.907   1.815   1.936   1.963   1.867   1.767   1.730   1.734   1.707   1.825   1.857   1.841   1.743   1.849   1.726   1.826   1.744   1.671   1.603   1.597   1.656   1.600   1.772   1.735   1.735   1.725   1.778   1.722   1.703   1.655   1.675   1.681   1.603   1.645   1.579   1.687   1.623   1.719   1.749   1.710   1.682   1.668   1.734   1.741   1.730   1.684   1.753   1.675   1.768   1.694
   171.00    1.979   2.111   2.021   2.003   1.991   2.032   1.998   1.794   1.774   1.702   1.651   1.709   1.609   1.696   1.740   1.828   1.734   1.787   1.809   1.838   1.823   1.897   1.862   1.917   1.815   1.921   1.903   1.819   1.800   1.832   1.744   1.755   1.875   1.855   1.919   1.866   1.896   1.811   1.759   1.679   1.698   1.737   1.743   1.766   1.715   1.710   1.748   1.696   1.734   1.742   1.735   1.561   1.597   1.607   1.713   1.732   1.625   1.577   1.621   1.640   1.680   1.678   1.639   1.628   1.581   1.601   1.627   1.732   1.682   1.725   1.738   1.734   1.714
   166.00    2.074   2.153   2.013   1.915   1.843   1.939   1.821   1.886   1.782   1.748   1.733   1.578   1.661   1.670   1.748   1.825   1.824   1.773   1.782   1.752   1.863   1.883   1.877   1.736   1.829   1.970   1.983   2.018   1.994   1.926   1.941   1.841   1.921   1.992   1.971   1.906   1.819   1.747   1.704   1.609   1.665   1.825   1.790   1.781   1.707   1.631   1.677   1.656   1.739   1.689   1.684   1.607   1.592   1.638   1.730   1.728   1.689   1.601   1.580   1.659   1.646   1.645   1.614   1.586   1.666   1.688   1.701   1.654   1.669   1.608   1.681   1.701   1.680
   161.00    1.997   2.022   1.969   1.931   1.721   1.728   1.842   1.822   1.736   1.809   1.755   1.712   1.754   1.724   1.715   1.723   1.773   1.800   1.719   1.783   1.838   1.881   1.820   1.770   1.835   1.904   1.901   2.044   2.015   2.011   1.903   1.848   1.775   1.975   1.890   2.008   1.819   1.693   1.717   1.612   1.725   1.806   1.812   1.668   1.735   1.602   1.691   1.671   1.607   1.630   1.633   1.730   1.643   1.756   1.670   1.772   1.722   1.657   1.570   1.604   1.656   1.615   1.645   1.530   1.629   1.702   1.713   1.638   1.682   1.530   1.620   1.647   1.703
   156.00    1.969   1.973   1.971   1.920   1.820   1.766   1.728   1.723   1.725   1.763   1.688   1.604   1.742   1.722   1.678   1.791   1.734   1.688   1.692   1.626   1.697   1.658   1.729   1.655   1.721   1.673   1.784   1.857   1.962   1.887   1.838   1.880   1.928   1.890   1.880   1.908   1.885   1.693   1.727   1.668   1.776   1.805   1.763   1.668   1.728   1.684   1.790   1.701   1.621   1.662   1.671   1.718   1.735   1.718   1.773   1.719   1.726   1.700   1.670   1.656   1.566   1.701   1.758   1.551   1.628   1.706   1.672   1.649   1.603   1.582   1.683   1.758   1.693
   151.00    1.914   1.905   1.940   1.829   1.740   1.727   1.779   1.659   1.594   1.670   1.643   1.574   1.717   1.740   1.644   1.740   1.735   1.800   1.748   1.639   1.709   1.797   1.809   1.695   1.655   1.663   1.842   1.824   1.932   1.924   1.913   1.897   1.923   1.929   1.899   1.892   1.831   1.657   1.689   1.726   1.754   1.818   1.747   1.681   1.732   1.781   1.864   1.807   1.667   1.681   1.747   1.834   1.725   1.750   1.780   1.830   1.851   1.805   1.625   1.617   1.561   1.650   1.618   1.633   1.598   1.663   1.658   1.674   1.711   1.687   1.650   1.769   1.740
   146.00    1.969   1.834   1.829   1.790   1.777   1.832   1.727   1.679   1.673   1.588   1.584   1.615   1.642   1.716   1.708   1.751   1.687   1.755   1.736   1.725   1.696   1.769   1.773   1.601   1.658   1.741   1.698   1.779   1.837   1.864   1.930   1.878   1.907   1.752   1.811   1.775   1.853   1.686   1.712   1.749   1.757   1.733   1.675   1.730   1.822   1.842   1.748   1.763   1.704   1.801   1.791   1.720   1.679   1.686   1.748   1.744   1.662   1.816   1.721   1.625   1.551   1.635   1.688   1.696   1.726   1.664   1.673   1.739   1.714   1.572   1.712   1.670   1.747
   141.00    1.890   1.774   1.823   1.674   1.827   1.719   1.679   1.632   1.696   1.615   1.616   1.698   1.666   1.711   1.800   1.811   1.769   1.699   1.785   1.859   1.720   1.778   1.728   1.741   1.718   1.726   1.657   1.723   1.876   1.911   1.949   1.954   1.909   1.811   1.654   1.755   1.806   1.862   1.788   1.780   1.774   1.818   1.709   1.647   1.700   1.857   1.898   1.797   1.751   1.766   1.860   1.749   1.734   1.674   1.813   1.797   1.738   1.723   1.750   1.734   1.639   1.638   1.619   1.632   1.747   1.595   1.649   1.645   1.634   1.624   1.739   1.732   1.686
   136.00    1.876   1.897   1.759   1.790   1.691   1.732   1.671   1.656   1.690   1.674   1.598   1.668   1.707   1.740   1.742   1.797   1.818   1.873   1.804   1.755   1.767   1.801   1.858   1.829   1.844   1.733   1.670   1.796   1.919   1.917   1.906   1.901   1.707   1.745   1.613   1.710   1.743   1.749   1.766   1.769   1.888   1.852   1.758   1.750   1.760   1.868   1.906   1.829   1.813   1.717   1.746   1.694   1.657   1.750   1.780   1.730   1.675   1.746   1.705   1.722   1.633   1.739   1.707   1.628   1.699   1.705   1.723   1.606   1.531   1.559   1.590   1.698   1.668
   131.00    1.863   1.756   1.709   1.706   1.655   1.743   1.776   1.637   1.641   1.571   1.608   1.646   1.722   1.770   1.783   1.820   1.823   1.799   1.903   1.789   1.834   1.886   1.845   1.789   1.791   1.846   1.744   1.784   1.913   1.964   2.024   1.912   1.755   1.754   1.713   1.670   1.695   1.581   1.733   1.803   1.890   1.946   1.830   1.798   1.735   1.768   1.765   1.892   1.733   1.740   1.697   1.746   1.733   1.695   1.667   1.642   1.644   1.684   1.748   1.623   1.617   1.689   1.670   1.804   1.843   1.961   1.835   1.738   1.643   1.628   1.554   1.578   1.617
   126.00    1.788   1.740   1.656   1.702   1.723   1.779   1.681   1.644   1.622   1.627   1.643   1.651   1.712   1.778   1.726   1.773   1.779   1.813   1.802   1.843   1.937   1.910   1.864   1.695   1.700   1.741   1.789   1.955   1.911   1.939   1.977   1.978   1.724   1.762   1.795   1.786   1.750   1.776   1.914   1.849   1.952   1.829   1.790   1.756   1.860   1.724   1.730   1.887   1.774   1.736   1.774   1.644   1.659   1.829   1.755   1.579   1.681   1.650   1.736   1.754   1.696   1.632   1.710   1.807   1.899   1.936   1.841   1.692   1.671   1.594   1.539   1.615   1.638
   121.00    1.791   1.747   1.705   1.679   1.713   1.772   1.772   1.747   1.738   1.677   1.709   1.684   1.799   1.798   1.748   1.825   1.717   1.740   1.736   1.850   1.872   1.803   1.747   1.766   1.779   1.701   1.816   1.811   1.829   1.806   1.806   1.898   1.896   1.875   1.778   1.800   1.818   1.830   1.998   2.042   2.022   1.774   1.809   1.800   1.883   1.707   1.750   1.772   1.821   1.661   1.716   1.851   1.789   1.808   1.631   1.625   1.732   1.726   1.745   1.690   1.740   1.699   1.684   1.813   1.987   1.855   1.820   1.736   1.647   1.735   1.604   1.524   1.673
   116.00    1.964   1.922   1.877   1.901   1.772   1.745   1.784   1.834   1.860   1.816   1.899   1.692   1.737   1.899   1.834   1.844   1.774   1.793   1.814   1.854   1.954   1.894   1.765   1.802   1.801   1.676   1.769   1.846   1.842   1.833   1.925   1.829   1.877   1.859   1.799   1.980   1.915   1.891   1.980   2.053   1.973   1.969   1.876   1.903   1.872   1.811   1.880   1.768   1.778   1.836   1.690   1.744   1.777   1.711   1.619   1.713   1.763   1.668   1.695   1.674   1.646   1.661   1.806   1.840   1.886   1.909   1.965   1.806   1.715   1.780   1.632   1.630   1.671
   111.00    1.840   1.907   1.959   2.079   1.850   1.896   1.973   1.811   1.835   1.903   1.930   1.894   1.816   1.867   1.817   1.869   1.737   1.694   1.843   1.978   1.915   1.855   1.893   1.884   1.819   1.779   1.855   1.805   1.807   1.756   1.834   1.838   1.887   1.942   1.977   1.924   1.936   2.032   1.954   2.004   1.980   1.869   1.811   1.825   1.881   1.904   1.835   1.769   1.852   1.880   1.781   1.781   1.757   1.691   1.685   1.759   1.743   1.661   1.673   1.662   1.653   1.749   1.839   1.846   1.861   1.872   1.971   1.883   1.747   1.782   1.875   1.806   1.743
   106.00    2.022   2.043   1.996   2.072   2.012   2.051   1.935   1.869   1.891   1.853   2.003   1.847   1.805   1.921   1.910   1.840   1.851   1.837   1.835   1.846   1.936   1.809   1.904   1.780   1.770   1.879   2.022   1.970   1.861   1.880   1.940   1.944   1.882   1.907   1.977   1.992   2.005   2.094   2.051   1.902   1.930   1.983   1.883   1.853   1.858   1.841   1.727   1.767   1.804   1.731   1.749   1.872   1.817   1.697   1.714   1.677   1.668   1.652   1.656   1.629   1.707   1.697   1.799   1.858   1.851   1.927   1.882   1.895   1.922   1.906   1.817   1.778   1.788
   101.00    2.107   2.004   2.016   2.068   1.969   1.952   1.951   1.970   1.997   1.965   1.873   1.939   1.852   1.894   1.915   1.963   1.891   1.805   1.903   1.998   1.951   1.896   1.868   1.919   1.848   1.918   2.057   1.946   1.859   1.834   1.903   1.907   1.893   1.938   2.045   2.035   2.042   2.089   2.013   1.896   1.884   1.783   1.792   1.880   1.818   1.787   1.780   1.717   1.665   1.714   1.731   1.732   1.732   1.636   1.694   1.577   1.699   1.677   1.720   1.782   1.753   1.746   1.768   1.757   1.883   1.880   1.907   1.937   1.894   1.914   1.809   1.867   1.844
    96.00    1.997   1.817   1.835   1.947   1.975   1.922   1.859   1.916   1.881   1.894   1.916   2.034   1.959   1.977   1.847   1.935   1.908   1.926   1.993   1.971   2.017   1.943   1.959   1.947   1.813   1.970   1.983   1.960   1.747   1.820   1.817   1.923   1.835   1.914   2.004   1.900   1.894   1.883   1.858   1.795   1.693   1.749   1.692   1.705   1.792   1.802   1.821   1.704   1.763   1.669   1.680   1.684   1.737   1.586   1.568   1.634   1.628   1.741   1.802   1.838   1.712   1.709   1.796   1.760   1.806   1.953   1.926   1.944   1.772   1.784   1.784   1.842   1.946
    91.00    1.840   1.811   1.876   1.984   1.961   1.896   1.912   1.866   1.883   1.875   2.034   2.014   2.067   2.002   1.992   2.009   1.869   1.986   1.977   1.913   1.915   1.898   1.916   1.928   1.828   1.905   1.889   1.826   1.896   1.727   1.686   1.713   1.754   1.832   1.874   1.890   1.757   1.795   1.791   1.645   1.748   1.729   1.620   1.681   1.673   1.753   1.725   1.703   1.577   1.719   1.614   1.726   1.709   1.567   1.614   1.667   1.675   1.821   1.772   1.791   1.793   1.793   1.827   1.750   1.754   1.798   1.798   1.847   1.765   1.802   1.830   1.832   1.956
    86.00    1.681   1.799   1.814   1.896   1.761   1.843   1.851   1.820   1.878   1.917   1.949   1.971   1.913   1.889   1.894   1.977   1.976   1.937   1.916   1.919   1.797   1.847   1.856   1.784   1.792   1.844   1.842   1.836   1.771   1.727   1.632   1.677   1.796   1.899   1.900   1.805   1.771   1.704   1.749   1.739   1.661   1.692   1.608   1.532   1.589   1.619   1.781   1.772   1.743   1.749   1.663   1.722   1.738   1.676   1.639   1.691   1.770   1.778   1.827   1.787   1.759   1.851   1.786   1.715   1.636   1.740   1.677   1.743   1.731   1.746   1.765   1.748   1.892
    81.00    1.838   1.825   1.915   1.906   1.837   1.839   1.860   1.871   1.886   1.865   1.791   1.839   1.805   1.883   1.951   1.919   1.926   1.903   1.970   1.911   1.870   1.862   1.848   1.813   1.840   1.836   1.849   1.780   1.718   1.706   1.634   1.650   1.785   1.812   1.821   1.792   1.789   1.735   1.733   1.741   1.724   1.693   1.615   1.564   1.562   1.536   1.632   1.761   1.847   1.777   1.721   1.706   1.609   1.661   1.514   1.609   1.696   1.739   1.780   1.881   1.804   1.784   1.813   1.858   1.859   1.658   1.671   1.615   1.769   1.747   1.813   1.757   1.881
    76.00    1.889   1.771   1.919   1.890   1.919   1.919   1.774   1.855   1.773   1.772   1.689   1.778   1.860   1.829   1.893   1.941   1.872   1.933   1.947   1.920   1.837   1.939   1.920   1.883   1.839   1.890   1.929   1.902   1.826   1.786   1.760   1.717   1.865   1.786   1.829   1.766   1.857   1.799   1.691   1.829   1.757   1.605   1.683   1.668   1.721   1.746   1.758   1.767   1.777   1.818   1.803   1.748   1.682   1.695   1.654   1.694   1.729   1.756   1.719   1.824   1.821   1.832   1.858   1.843   1.719   1.700   1.680   1.723   1.732   1.691   1.698   1.787   1.857
    71.00    1.748   1.831   1.844   1.834   1.990   1.861   1.899   1.914   1.887   1.852   1.698   1.845   1.917   1.954   1.833   1.828   1.930   1.847   1.883   1.955   1.864   1.954   1.953   1.934   1.806   1.754   1.805   1.679   1.661   1.660   1.645   1.739   1.664   1.706   1.772   1.834   1.869   1.847   1.755   1.817   1.826   1.693   1.684   1.754   1.776   1.777   1.726   1.771   1.818   1.858   1.746   1.774   1.804   1.742   1.691   1.667   1.720   1.750   1.744   1.874   1.800   1.699   1.783   1.721   1.711   1.709   1.671   1.633   1.618   1.683   1.690   1.810   1.800
    66.00    1.781   1.909   1.900   1.991   2.001   1.996   1.935   1.983   2.049   2.072   1.870   1.834   1.756   1.819   1.746   1.799   1.864   1.835   1.925   1.835   1.908   2.004   1.876   1.820   1.760   1.694   1.834   1.750   1.630   1.616   1.576   1.694   1.785   1.826   1.796   1.841   1.828   1.977   1.897   1.797   1.875   1.865   1.957   1.824   1.822   1.663   1.655   1.720   1.813   1.923   1.812   1.756   1.608   1.702   1.670   1.731   1.724   1.736   1.722   1.842   1.738   1.755   1.783   1.794   1.821   1.793   1.772   1.748   1.658   1.560   1.682   1.796   1.828
    61.00    1.858   1.857   1.987   2.008   1.996   1.933   1.939   1.915   2.047   1.957   1.846   1.765   1.847   1.804   1.754   1.785   1.736   1.846   1.828   1.818   1.915   1.931   1.837   1.743   1.752   1.729   1.721   1.638   1.585   1.619   1.545   1.617   1.663   1.700   1.804   1.792   1.889   1.979   2.045   1.880   1.831   1.933   1.816   1.822   1.740   1.714   1.662   1.708   1.690   1.821   1.864   1.613   1.638   1.778   1.699   1.817   1.816   1.789   1.734   1.740   1.696   1.691   1.896   1.794   1.834   1.913   1.873   1.826   1.640   1.622   1.658   1.699   1.726
    56.00    1.732   1.889   1.903   1.928   1.858   1.892   1.937   1.966   1.917   1.840   1.717   1.776   1.752   1.728   1.827   1.796   1.817   1.903   1.837   1.859   1.867   1.900   1.933   1.786   1.763   1.791   1.722   1.641   1.516   1.576   1.628   1.670   1.735   1.827   1.803   1.814   1.847   1.875   1.926   1.926   1.946   1.882   1.829   1.759   1.700   1.720   1.651   1.659   1.703   1.689   1.800   1.722   1.602   1.596   1.785   1.894   1.848   1.838   1.781   1.630   1.730   1.721   1.771   1.861   1.825   1.924   1.948   1.759   1.598   1.534   1.654   1.629   1.672
    51.00    1.816   1.827   1.903   1.787   1.829   1.886   1.863   1.905   1.889   1.804   1.730   1.669   1.676   1.761   1.712   1.801   1.776   1.781   1.844   1.924   1.859   1.769   1.805   1.760   1.799   1.786   1.657   1.645   1.615   1.690   1.736   1.821   1.867   1.878   1.794   1.797   1.856   1.829   1.844   1.836   1.865   1.866   1.752   1.758   1.802   1.698   1.705   1.730   1.705   1.717   1.705   1.671   1.709   1.710   1.838   1.830   1.752   1.820   1.847   1.803   1.717   1.790   1.877   1.874   1.796   1.805   1.841   1.752   1.688   1.611   1.628   1.585   1.562
[...]
   161.00    1.093   1.113   1.094   1.059   1.107   1.123   1.191   1.182   1.136   1.081   1.146   1.158   1.115   1.208   1.194   1.157   1.142   1.130   1.113   1.147   1.134   1.176   1.160   1.181   1.186   1.180   1.144   1.152   1.179   1.190   1.191   1.182   1.192   1.139   1.132   1.154   1.153   1.183   1.224   1.173   1.179   1.147   1.151   1.141   1.209   1.191   1.183   1.155   1.192   1.193   1.197   1.164   1.185   1.260   1.223   1.186   1.162   1.179   1.181   1.151   1.156   1.124   1.099   1.114   1.093   1.104   1.083   1.091   1.041   1.071   1.044   1.088   1.121
   156.00    1.138   1.103   1.118   1.096   1.078   1.123   1.154   1.172   1.169   1.144   1.160   1.115   1.169   1.179   1.182   1.205   1.146   1.135   1.155   1.119   1.154   1.111   1.168   1.158   1.164   1.135   1.143   1.161   1.192   1.220   1.175   1.155   1.175   1.170   1.139   1.114   1.141   1.201   1.205   1.208   1.186   1.199   1.209   1.192   1.225   1.246   1.230   1.209   1.230   1.172   1.227   1.253   1.205   1.259   1.215   1.206   1.191   1.174   1.167   1.186   1.138   1.135   1.160   1.146   1.064   1.051   1.038   1.030   1.058   1.076   1.118   1.103   1.128
   151.00    1.144   1.134   1.135   1.151   1.164   1.169   1.143   1.173   1.148   1.180   1.165   1.126   1.170   1.151   1.153   1.180   1.176   1.151   1.185   1.187   1.133   1.167   1.133   1.126   1.107   1.138   1.114   1.129   1.179   1.198   1.192   1.152   1.151   1.131   1.137   1.116   1.104   1.135   1.190   1.187   1.219   1.243   1.238   1.270   1.269   1.276   1.247   1.245   1.233   1.230   1.210   1.194   1.255   1.277   1.241   1.212   1.249   1.247   1.209   1.187   1.097   1.149   1.131   1.126   1.085   1.063   1.068   1.018   1.051   1.083   1.127   1.112   1.109
   146.00    1.218   1.202   1.156   1.179   1.141   1.072   1.117   1.122   1.147   1.146   1.165   1.135   1.154   1.115   1.146   1.156   1.177   1.167   1.164   1.170   1.166   1.145   1.152   1.113   1.094   1.107   1.138   1.136   1.127   1.096   1.148   1.137   1.127   1.100   1.074   1.094   1.090   1.113   1.156   1.135   1.186   1.244   1.246   1.299   1.229   1.275   1.305   1.219   1.225   1.297   1.314   1.253   1.253   1.283   1.275   1.215   1.257   1.278   1.184   1.172   1.129   1.152   1.145   1.097   1.077   1.073   1.113   1.076   1.121   1.117   1.131   1.141   1.119
   141.00    1.180   1.262   1.203   1.165   1.122   1.130   1.096   1.118   1.108   1.118   1.118   1.129   1.120   1.118   1.143   1.193   1.157   1.144   1.126   1.121   1.136   1.130   1.146   1.130   1.080   1.073   1.103   1.146   1.128   1.150   1.164   1.129   1.133   1.160   1.101   1.099   1.104   1.108   1.105   1.204   1.169   1.184   1.211   1.225   1.270   1.248   1.313   1.265   1.275   1.298   1.290   1.303   1.287   1.260   1.271   1.250   1.254   1.184   1.162   1.130   1.119   1.147   1.142   1.110   1.122   1.131   1.087   1.140   1.129   1.092   1.150   1.136   1.139
   136.00    1.153   1.174   1.218   1.156   1.182   1.145   1.147   1.155   1.131   1.101   1.115   1.060   1.091   1.139   1.109   1.142   1.158   1.153   1.120   1.129   1.145   1.086   1.093   1.089   1.083   1.090   1.090   1.152   1.159   1.153   1.132   1.170   1.130   1.184   1.107   1.091   1.085   1.112   1.163   1.202   1.138   1.118   1.204   1.197   1.232   1.245   1.271   1.272   1.284   1.318   1.285   1.310   1.310   1.263   1.237   1.223   1.231   1.173   1.105   1.103   1.112   1.109   1.143   1.087   1.148   1.181   1.112   1.118   1.123   1.108   1.108   1.147   1.118
   131.00    1.179   1.237   1.231   1.168   1.118   1.153   1.154   1.126   1.125   1.074   1.076   1.066   1.056   1.096   1.142   1.184   1.136   1.087   1.096   1.132   1.105   1.109   1.111   1.093   1.080   1.089   1.119   1.133   1.158   1.179   1.147   1.180   1.168   1.155   1.092   1.095   1.101   1.143   1.162   1.183   1.195   1.154   1.154   1.210   1.227   1.254   1.272   1.295   1.303   1.304   1.296   1.310   1.315   1.259   1.206   1.216   1.190   1.170   1.159   1.147   1.099   1.134   1.130   1.129   1.154   1.164   1.103   1.132   1.132   1.124   1.108   1.126   1.133
   126.00    1.147   1.143   1.154   1.169   1.159   1.116   1.100   1.098   1.070   1.070   1.072   1.093   1.094   1.114   1.130   1.174   1.077   1.082   1.084   1.110   1.113   1.103   1.085   1.074   1.105   1.097   1.100   1.125   1.136   1.190   1.154   1.187   1.189   1.166   1.153   1.134   1.149   1.154   1.198   1.228   1.176   1.247   1.156   1.222   1.226   1.247   1.240   1.235   1.285   1.289   1.296   1.301   1.303   1.230   1.227   1.164   1.160   1.113   1.152   1.161   1.118   1.134   1.133   1.157   1.121   1.163   1.165   1.121   1.107   1.128   1.163   1.115   1.138
   121.00    1.126   1.101   1.121   1.141   1.137   1.123   1.125   1.132   1.089   1.070   1.102   1.114   1.098   1.091   1.119   1.157   1.125   1.039   1.080   1.088   1.097   1.106   1.039   1.050   1.088   1.126   1.138   1.154   1.149   1.174   1.198   1.165   1.112   1.179   1.161   1.147   1.121   1.161   1.192   1.220   1.208   1.199   1.274   1.262   1.244   1.269   1.263   1.269   1.285   1.282   1.275   1.292   1.221   1.225   1.193   1.195   1.141   1.155   1.173   1.163   1.146   1.132   1.117   1.122   1.155   1.154   1.165   1.153   1.130   1.134   1.117   1.077   1.091
   116.00    1.118   1.137   1.136   1.101   1.119   1.124   1.106   1.102   1.123   1.104   1.134   1.126   1.151   1.147   1.113   1.131   1.090   1.083   1.063   1.068   1.102   1.103   1.035   1.034   1.047   1.089   1.129   1.165   1.158   1.204   1.199   1.171   1.153   1.150   1.166   1.144   1.165   1.169   1.176   1.206   1.204   1.150   1.169   1.231   1.224   1.255   1.254   1.274   1.242   1.256   1.265   1.248   1.191   1.226   1.220   1.171   1.167   1.173   1.179   1.204   1.179   1.196   1.155   1.136   1.142   1.180   1.176   1.151   1.168   1.138   1.135   1.102   1.124
   111.00    1.163   1.142   1.162   1.152   1.151   1.135   1.107   1.149   1.119   1.139   1.152   1.167   1.167   1.152   1.141   1.088   1.059   1.094   1.085   1.071   1.136   1.113   1.136   1.112   1.081   1.115   1.115   1.138   1.174   1.203   1.155   1.155   1.172   1.121   1.168   1.141   1.177   1.182   1.223   1.205   1.226   1.201   1.160   1.239   1.226   1.232   1.209   1.205   1.227   1.210   1.185   1.179   1.168   1.229   1.237   1.193   1.140   1.119   1.157   1.198   1.138   1.149   1.150   1.130   1.168   1.140   1.157   1.168   1.147   1.120   1.164   1.142   1.178
   106.00    1.158   1.177   1.142   1.150   1.178   1.143   1.156   1.134   1.185   1.192   1.199   1.188   1.150   1.159   1.160   1.133   1.125   1.124   1.104   1.064   1.075   1.104   1.085   1.077   1.089   1.116   1.122   1.151   1.187   1.182   1.199   1.206   1.141   1.101   1.125   1.126   1.134   1.165   1.144   1.155   1.154   1.168   1.193   1.198   1.234   1.222   1.186   1.187   1.197   1.146   1.169   1.184   1.205   1.185   1.208   1.180   1.129   1.144   1.146   1.133   1.148   1.124   1.152   1.150   1.135   1.142   1.172   1.157   1.171   1.163   1.200   1.112   1.167
   101.00    1.148   1.138   1.139   1.169   1.180   1.157   1.195   1.198   1.207   1.185   1.177   1.153   1.186   1.182   1.193   1.136   1.134   1.144   1.125   1.087   1.113   1.084   1.081   1.103   1.112   1.117   1.136   1.107   1.163   1.163   1.151   1.135   1.062   1.068   1.090   1.098   1.140   1.140   1.152   1.118   1.125   1.170   1.237   1.263   1.203   1.160   1.177   1.187   1.155   1.141   1.184   1.205   1.195   1.178   1.181   1.124   1.149   1.154   1.173   1.131   1.129   1.161   1.112   1.146   1.166   1.145   1.196   1.183   1.139   1.155   1.186   1.127   1.143
    96.00    1.124   1.114   1.116   1.129   1.133   1.165   1.201   1.180   1.207   1.150   1.134   1.180   1.197   1.233   1.202   1.190   1.147   1.096   1.096   1.082   1.077   1.123   1.132   1.117   1.113   1.100   1.092   1.110   1.114   1.116   1.143   1.132   1.062   1.102   1.111   1.141   1.159   1.149   1.133   1.140   1.153   1.207   1.215   1.246   1.216   1.170   1.157   1.107   1.159   1.174   1.161   1.149   1.155   1.158   1.155   1.147   1.148   1.166   1.171   1.156   1.138   1.140   1.147   1.110   1.123   1.182   1.180   1.194   1.221   1.185   1.157   1.170   1.194
    91.00    1.144   1.120   1.106   1.073   1.122   1.153   1.173   1.173   1.164   1.211   1.169   1.178   1.186   1.211   1.194   1.157   1.156   1.107   1.106   1.072   1.082   1.116   1.143   1.150   1.090   1.097   1.106   1.118   1.081   1.058   1.098   1.104   1.104   1.079   1.111   1.140   1.163   1.139   1.175   1.153   1.162   1.201   1.205   1.172   1.155   1.165   1.181   1.158   1.184   1.179   1.138   1.129   1.085   1.134   1.140   1.146   1.157   1.127   1.110   1.117   1.160   1.150   1.102   1.117   1.109   1.143   1.202   1.196   1.216   1.205   1.164   1.155   1.137
    86.00    1.162   1.150   1.138   1.135   1.160   1.162   1.164   1.163   1.161   1.183   1.140   1.094   1.122   1.161   1.232   1.190   1.160   1.123   1.078   1.070   1.107   1.142   1.128   1.111   1.113   1.135   1.135   1.113   1.084   1.052   1.103   1.126   1.110   1.074   1.085   1.099   1.134   1.160   1.168   1.196   1.171   1.175   1.139   1.173   1.185   1.218   1.153   1.146   1.088   1.146   1.102   1.102   1.111   1.103   1.158   1.118   1.147   1.163   1.159   1.132   1.153   1.143   1.108   1.108   1.139   1.104   1.161   1.167   1.210   1.246   1.205   1.194   1.170
    81.00    1.173   1.115   1.064   1.135   1.128   1.132   1.143   1.166   1.105   1.140   1.183   1.161   1.174   1.218   1.213   1.187   1.127   1.123   1.113   1.142   1.126   1.150   1.152   1.109   1.081   1.114   1.105   1.085   1.062   1.068   1.065   1.110   1.085   1.082   1.094   1.106   1.129   1.138   1.204   1.201   1.137   1.158   1.146   1.166   1.179   1.179   1.161   1.098   1.082   1.094   1.165   1.141   1.132   1.110   1.157   1.200   1.232   1.216   1.216   1.174   1.139   1.145   1.107   1.134   1.151   1.144   1.139   1.178   1.158   1.152   1.164   1.158   1.151
    76.00    1.178   1.122   1.085   1.132   1.147   1.127   1.161   1.141   1.110   1.139   1.128   1.147   1.171   1.177   1.234   1.175   1.116   1.113   1.109   1.104   1.147   1.134   1.124   1.075   1.095   1.093   1.078   1.092   1.092   1.112   1.104   1.099   1.086   1.091   1.079   1.095   1.123   1.161   1.213   1.151   1.146   1.178   1.178   1.171   1.163   1.131   1.143   1.088   1.105   1.129   1.159   1.205   1.171   1.159   1.161   1.205   1.223   1.217   1.210   1.175   1.127   1.119   1.082   1.150   1.088   1.094   1.124   1.139   1.161   1.156   1.167   1.123   1.155
    71.00    1.157   1.148   1.130   1.104   1.120   1.161   1.147   1.139   1.114   1.117   1.129   1.122   1.175   1.149   1.186   1.191   1.145   1.125   1.078   1.099   1.100   1.088   1.079   1.051   1.087   1.116   1.092   1.134   1.173   1.146   1.113   1.105   1.083   1.089   1.039   1.057   1.170   1.165   1.194   1.146   1.119   1.142   1.172   1.193   1.124   1.157   1.139   1.117   1.123   1.111   1.145   1.206   1.179   1.179   1.148   1.210   1.230   1.181   1.166   1.122   1.123   1.107   1.126   1.137   1.101   1.090   1.122   1.138   1.160   1.134   1.149   1.128   1.153
    66.00    1.139   1.141   1.136   1.135   1.140   1.176   1.156   1.144   1.126   1.101   1.105   1.140   1.169   1.118   1.159   1.114   1.110   1.078   1.127   1.092   1.111   1.120   1.082   1.066   1.103   1.148   1.198   1.218   1.222   1.157   1.132   1.077   1.101   1.097   1.046   1.076   1.149   1.140   1.145   1.152   1.169   1.127   1.130   1.138   1.136   1.157   1.104   1.093   1.137   1.125   1.095   1.137   1.150   1.170   1.181   1.235   1.221   1.199   1.137   1.135   1.108   1.111   1.076   1.131   1.123   1.133   1.169   1.180   1.164   1.132   1.109   1.131   1.121
    61.00    1.149   1.133   1.145   1.135   1.147   1.142   1.153   1.125   1.154   1.159   1.147   1.117   1.139   1.141   1.125   1.114   1.086   1.098   1.136   1.099   1.110   1.087   1.065   1.095   1.170   1.170   1.164   1.171   1.169   1.151   1.096   1.099   1.102   1.115   1.123   1.114   1.123   1.089   1.155   1.143   1.176   1.144   1.151   1.128   1.151   1.159   1.145   1.092   1.119   1.128   1.105   1.164   1.143   1.127   1.169   1.146   1.157   1.172   1.160   1.137   1.135   1.107   1.073   1.106   1.130   1.205   1.141   1.194   1.149   1.166   1.130   1.125   1.100
    56.00    1.130   1.137   1.175   1.115   1.108   1.157   1.128   1.144   1.136   1.142   1.155   1.125   1.147   1.178   1.193   1.128   1.068   1.100   1.130   1.105   1.098   1.072   1.098   1.083   1.103   1.138   1.180   1.192   1.165   1.134   1.115   1.115   1.120   1.141   1.139   1.176   1.134   1.148   1.191   1.149   1.133   1.130   1.139   1.082   1.137   1.157   1.129   1.118   1.088   1.109   1.150   1.152   1.170   1.146   1.147   1.157   1.080   1.110   1.080   1.102   1.077   1.107   1.135   1.128   1.172   1.197   1.150   1.147   1.175   1.156   1.149   1.144   1.147
    51.00    1.150   1.124   1.146   1.110   1.111   1.136   1.114   1.148   1.114   1.127   1.114   1.137   1.174   1.165   1.109   1.127   1.100   1.094   1.133   1.134   1.074   1.072   1.090   1.048   1.079   1.105   1.149   1.159   1.146   1.131   1.140   1.136   1.150   1.124   1.174   1.185   1.211   1.229   1.194   1.175   1.109   1.093   1.097   1.091   1.097   1.094   1.080   1.095   1.099   1.124   1.153   1.136   1.144   1.129   1.146   1.152   1.096   1.095   1.132   1.086   1.081   1.135   1.102   1.083   1.166   1.188   1.205   1.193   1.170   1.188   1.206   1.194   1.184
    46.00    1.144   1.167   1.131   1.136   1.173   1.143   1.144   1.141   1.104   1.158   1.148   1.144   1.083   1.135   1.112   1.130   1.095   1.127   1.153   1.119   1.105   1.066   1.088   1.101   1.111   1.096   1.125   1.164   1.144   1.148   1.113   1.114   1.120   1.144   1.215   1.242   1.213   1.227   1.207   1.164   1.101   1.106   1.084   1.100   1.119   1.118   1.075   1.132   1.167   1.189   1.116   1.141   1.121   1.113   1.142   1.111   1.099   1.127   1.133   1.107   1.089   1.122   1.163   1.141   1.161   1.179   1.158   1.200   1.177   1.161   1.160   1.216   1.193
    41.00    1.214   1.206   1.214   1.184   1.166   1.124   1.133   1.145   1.080   1.117   1.156   1.126   1.109   1.097   1.101   1.118   1.087   1.153   1.175   1.148   1.128   1.086   1.109   1.172   1.113   1.125   1.152   1.174   1.123   1.117   1.108   1.154   1.201   1.189   1.212   1.231   1.246   1.232   1.244   1.168   1.110   1.078   1.087   1.073   1.101   1.085   1.069   1.151   1.185   1.170   1.151   1.151   1.156   1.122   1.162   1.096   1.086   1.125   1.090   1.125   1.185   1.170   1.264   1.185   1.152   1.190   1.232   1.212   1.209   1.183   1.199   1.160   1.186
    36.00    1.171   1.231   1.219   1.226   1.142   1.155   1.143   1.103   1.072   1.067   1.131   1.134   1.167   1.155   1.116   1.121   1.086   1.129   1.170   1.176   1.146   1.147   1.130   1.155   1.124   1.106   1.131   1.130   1.119   1.176   1.161   1.156   1.163   1.203   1.264   1.294   1.232   1.213   1.232   1.172   1.160   1.137   1.132   1.094   1.107   1.109   1.131   1.167   1.139   1.169   1.176   1.139   1.138   1.138   1.149   1.131   1.141   1.155   1.117   1.146   1.198   1.240   1.259   1.182   1.196   1.162   1.195   1.189   1.187   1.186   1.163   1.151   1.154
    31.00    1.152   1.190   1.218   1.213   1.132   1.148   1.144   1.093   1.107   1.095   1.100   1.184   1.173   1.126   1.143   1.128   1.113   1.128   1.152   1.152   1.131   1.106   1.109   1.094   1.177   1.133   1.147   1.151   1.125   1.134   1.142   1.163   1.167   1.201   1.270   1.299   1.233   1.228   1.188   1.167   1.156   1.152   1.171   1.190   1.091   1.105   1.128   1.137   1.126   1.150   1.126   1.109   1.155   1.132   1.160   1.158   1.100   1.134   1.081   1.156   1.254   1.229   1.198   1.191   1.157   1.176   1.218   1.220   1.201   1.195   1.179   1.147   1.190
    26.00    1.162   1.199   1.178   1.166   1.171   1.152   1.163   1.137   1.078   1.099   1.143   1.129   1.140   1.185   1.149   1.121   1.165   1.134   1.137   1.179   1.161   1.137   1.096   1.151   1.201   1.144   1.133   1.156   1.128   1.122   1.170   1.186   1.233   1.190   1.260   1.244   1.233   1.148   1.175   1.155   1.112   1.121   1.139   1.126   1.103   1.148   1.191   1.108   1.098   1.081   1.128   1.110   1.137   1.090   1.112   1.123   1.110   1.145   1.131   1.157   1.188   1.240   1.184   1.168   1.213   1.216   1.160   1.182   1.181   1.210   1.095   1.142   1.173
    21.00    1.196   1.142   1.176   1.201   1.227   1.229   1.160   1.138   1.120   1.088   1.130   1.114   1.155   1.165   1.161   1.173   1.168   1.155   1.134   1.147   1.167   1.126   1.124   1.163   1.202   1.148   1.133   1.136   1.142   1.146   1.153   1.165   1.199   1.250   1.235   1.192   1.194   1.165   1.130   1.107   1.103   1.119   1.120   1.098   1.167   1.131   1.147   1.168   1.114   1.144   1.157   1.123   1.123   1.085   1.085   1.113   1.082   1.118   1.136   1.174   1.184   1.169   1.158   1.216   1.244   1.239   1.195   1.167   1.150   1.187   1.154   1.142   1.185
    16.00    1.196   1.158   1.160   1.163   1.207   1.202   1.184   1.180   1.164   1.154   1.104   1.140   1.164   1.192   1.186   1.201   1.167   1.119   1.145   1.142   1.122   1.184   1.143   1.128   1.129   1.112   1.104   1.104   1.144   1.150   1.181   1.180   1.170   1.231   1.271   1.174   1.147   1.181   1.133   1.119   1.109   1.149   1.132   1.084   1.089   1.116   1.096   1.125   1.125   1.075   1.121   1.162   1.134   1.094   1.072   1.096   1.149   1.126   1.109   1.098   1.167   1.182   1.245   1.257   1.228   1.196   1.185   1.201   1.158   1.114   1.136   1.127   1.126
    11.00    1.166   1.158   1.147   1.186   1.208   1.185   1.196   1.187   1.199   1.157   1.143   1.142   1.165   1.155   1.160   1.157   1.128   1.127   1.142   1.125   1.164   1.170   1.167   1.184   1.152   1.082   1.106   1.113   1.118   1.142   1.153   1.193   1.201   1.219   1.244   1.222   1.168   1.147   1.147   1.177   1.142   1.137   1.122   1.042   1.080   1.123   1.133   1.157   1.145   1.132   1.123   1.139   1.139   1.113   1.117   1.119   1.100   1.070   1.132   1.140   1.167   1.189   1.199   1.237   1.198   1.215   1.146   1.142   1.117   1.112   1.160   1.190   1.184
     6.00    1.218   1.156   1.140   1.181   1.122   1.174   1.212   1.202   1.161   1.167   1.142   1.169   1.156   1.148   1.135   1.155   1.155   1.121   1.160   1.200   1.164   1.134   1.161   1.180   1.139   1.122   1.174   1.164   1.178   1.098   1.142   1.165   1.186   1.191   1.202   1.182   1.108   1.176   1.161   1.135   1.174   1.101   1.092   1.097   1.126   1.148   1.154   1.169   1.116   1.129   1.117   1.134   1.124   1.113   1.105   1.133   1.084   1.098   1.136   1.118   1.114   1.162   1.190   1.174   1.180   1.155   1.156   1.159   1.129   1.157   1.160   1.176   1.191
     1.00    1.146   1.152   1.157   1.133   1.152   1.163   1.213   1.186   1.177   1.164   1.144   1.165   1.168   1.133   1.181   1.166   1.176   1.158   1.128   1.143   1.169   1.191   1.159   1.161   1.118   1.105   1.116   1.182   1.143   1.128   1.147   1.165   1.172   1.171   1.186   1.160   1.133   1.172   1.164   1.089   1.077   1.111   1.118   1.094   1.080   1.103   1.095   1.138   1.128   1.154   1.162   1.161   1.149   1.124   1.097   1.103   1.118   1.106   1.139   1.124   1.098   1.127   1.186   1.201   1.206   1.199   1.129   1.120   1.160   1.138   1.173   1.192   1.209

   Mean standard deviation across all grid points:
      u component:    2.290 m/s
      v component:    1.785 m/s
      w component:    1.147 m/s


U-component (X) statistics from the interpolated hub point:

   Mean =  11.6748 m/s
   TI   =  20.7210 %


Processing complete.  10975 CPU seconds used.
