
This summary file was generated by TurbSim (from OpenFAST-v3.3.0) on 09-Jan-2023 at 13:47:21.


Runtime Options:

         1  Random seed #1
         0  Random seed #2
         F  Output binary HH turbulence parameters?
         F  Output formatted turbulence parameters?
         F  Output AeroDyn HH files?
         T  Output AeroDyn FF files?
         F  Output BLADED FF files?
         F  Output tower data?
         F  Output HAWC FF files?
         F  Output formatted FF files?
         T  Output coherent turbulence time step file?
 0 -  NONE  IEC turbulence models scaled to exact specified standard deviation


Turbine/Model Specifications:

        61  Vertical grid-point matrix dimension
        73  Horizontal grid-point matrix dimension
     0.100  Time step [seconds]
   600.000  Analysis time [seconds]
   600.000  Usable output time [seconds]
   151.000  Hub height [m]
   300.000  Grid height [m]
   360.000  Grid width [m]
     0.000  Vertical flow angle [degrees]
     0.000  Horizontal flow angle [degrees]


Meteorological Boundary Conditions:

    TIMESR  User-input time series spectral model
       N/A  IEC standard
       N/A  IEC turbulence characteristic
       N/A  IEC turbulence type
       N/A  IEC Extreme Turbulence Model (ETM) "c" parameter [m/s]
       PL   Wind profile type
   119.000  Reference height [m]
    11.400  Reference wind speed [m/s]
       N/A  Jet height [m]
     0.100  Power law exponent
     0.030  Surface roughness length [m]


Non-IEC Meteorological Boundary Conditions:

    45.000  Site latitude [degrees]
     0.050  Gradient Richardson number
     0.529  Friction or shear velocity [m/s]
       N/A  Mixing layer depth [m]
       N/A  Mean hub u'w' Reynolds stress
       N/A  Mean hub u'v' Reynolds stress
       N/A  Mean hub v'w' Reynolds stress


Spatial Coherence Models:

       IEC  u-component coherence model
       IEC  v-component coherence model
       IEC  w-component coherence model
(   12.000, 0.659E-03)  u-component coherence parameters
(   12.000, 0.659E-03)  v-component coherence parameters
(   12.000, 0.659E-03)  w-component coherence parameters
       N/A  Coherence exponent


Coherent Turbulence Scaling Parameters:

.\EventData
            Name of the path containing the coherent turbulence data files
       les  Type of coherent turbulence data files
     1.000  Disturbance scale (ratio of wave height to rotor diameter)
     0.500  Fractional location of tower centerline from right
     0.500  Fractional location of hub height from the bottom of the dataset
    30.000  Minimum start time for coherent structures [seconds]


Profiles from User-Defined Time-Series Input:

  Height   Wind Speed   Horizontal Angle   Vertical Angle
   (m)        (m/s)          (deg)              (deg)    
  ------   ----------   ----------------   --------------
  119.00      11.47           0.00               -0.00


You have requested that the following file(s) be generated:

   HighT1.bts (AeroDyn/TurbSim full-field wind file)


Turbulence Simulation Scaling Parameter Summary:

   Turbulence model used                            =  User-input time series
   Gradient Richardson number                       =    0.050
   Monin-Obukhov (M-O) z/L parameter                =    0.067
   Monin-Obukhov (M-O) length scale                 = 2265.000 m
   Mean wind speed at hub height                    =   11.675 m/s

   Wind profile type                                =  Power law
   Power law exponent                               =    0.100
   Mean shear across rotor disk                     =    0.018 (m/s)/m
   Assumed rotor diameter                           =  300.000 m
   Surface roughness length                         =    0.030 m

   Nyquist frequency of turbulent wind field        =    5.000 Hz

   Number of time steps in the FFT                  =     6000
   Number of time steps output                      =     6000
   Number of points simulated                       =     4454


Mean Flow Angles:

   Vertical   =   0.0 degrees
   Horizontal =   0.0 degrees

Mean Wind Speed Profile:

   Height    Wind Speed   Horizontal Angle  Vertical Angle  U-comp (X)   V-comp (Y)   W-comp (Z)
     (m)        (m/s)         (degrees)       (degrees)       (m/s)        (m/s)        (m/s)   
   ------    ----------   ----------------  --------------  ----------   ----------   ----------
    301.0       12.51            0.00            0.00         12.51         0.00         0.00
    296.0       12.49            0.00            0.00         12.49         0.00         0.00
    291.0       12.47            0.00            0.00         12.47         0.00         0.00
    286.0       12.44            0.00            0.00         12.44         0.00         0.00
    281.0       12.42            0.00            0.00         12.42         0.00         0.00
    276.0       12.40            0.00            0.00         12.40         0.00         0.00
    271.0       12.38            0.00            0.00         12.38         0.00         0.00
    266.0       12.35            0.00            0.00         12.35         0.00         0.00
    261.0       12.33            0.00            0.00         12.33         0.00         0.00
    256.0       12.31            0.00            0.00         12.31         0.00         0.00
    251.0       12.28            0.00            0.00         12.28         0.00         0.00
    246.0       12.26            0.00            0.00         12.26         0.00         0.00
    241.0       12.23            0.00            0.00         12.23         0.00         0.00
    236.0       12.21            0.00            0.00         12.21         0.00         0.00
    231.0       12.18            0.00            0.00         12.18         0.00         0.00
    226.0       12.16            0.00            0.00         12.16         0.00         0.00
    221.0       12.13            0.00            0.00         12.13         0.00         0.00
    216.0       12.10            0.00            0.00         12.10         0.00         0.00
    211.0       12.07            0.00            0.00         12.07         0.00         0.00
    206.0       12.04            0.00            0.00         12.04         0.00         0.00
    201.0       12.01            0.00            0.00         12.01         0.00         0.00
    196.0       11.98            0.00            0.00         11.98         0.00         0.00
    191.0       11.95            0.00            0.00         11.95         0.00         0.00
    186.0       11.92            0.00            0.00         11.92         0.00         0.00
    181.0       11.89            0.00            0.00         11.89         0.00         0.00
    176.0       11.85            0.00            0.00         11.85         0.00         0.00
    171.0       11.82            0.00            0.00         11.82         0.00         0.00
    166.0       11.79            0.00            0.00         11.79         0.00         0.00
    161.0       11.75            0.00            0.00         11.75         0.00         0.00
    156.0       11.71            0.00            0.00         11.71         0.00         0.00
    151.0       11.67            0.00            0.00         11.67         0.00         0.00
    146.0       11.64            0.00            0.00         11.64         0.00         0.00
    141.0       11.60            0.00            0.00         11.60         0.00         0.00
    136.0       11.55            0.00            0.00         11.55         0.00         0.00
    131.0       11.51            0.00            0.00         11.51         0.00         0.00
    126.0       11.47            0.00            0.00         11.47         0.00         0.00
    121.0       11.42            0.00            0.00         11.42         0.00         0.00
    116.0       11.37            0.00            0.00         11.37         0.00         0.00
    111.0       11.32            0.00            0.00         11.32         0.00         0.00
    106.0       11.27            0.00            0.00         11.27         0.00         0.00
    101.0       11.21            0.00            0.00         11.21         0.00         0.00
     96.0       11.16            0.00            0.00         11.16         0.00         0.00
     91.0       11.10            0.00            0.00         11.10         0.00         0.00
     86.0       11.04            0.00            0.00         11.04         0.00         0.00
     81.0       10.97            0.00            0.00         10.97         0.00         0.00
     76.0       10.90            0.00            0.00         10.90         0.00         0.00
     71.0       10.83            0.00            0.00         10.83         0.00         0.00
     66.0       10.75            0.00            0.00         10.75         0.00         0.00
     61.0       10.66            0.00            0.00         10.66         0.00         0.00
     56.0       10.57            0.00            0.00         10.57         0.00         0.00
     51.0       10.47            0.00            0.00         10.47         0.00         0.00
     46.0       10.37            0.00            0.00         10.37         0.00         0.00
     41.0       10.25            0.00            0.00         10.25         0.00         0.00
     36.0       10.12            0.00            0.00         10.12         0.00         0.00
     31.0        9.97            0.00            0.00          9.97         0.00         0.00
     26.0        9.79            0.00            0.00          9.79         0.00         0.00
     21.0        9.58            0.00            0.00          9.58         0.00         0.00
     16.0        9.33            0.00            0.00          9.33         0.00         0.00
     11.0        8.98            0.00            0.00          8.98         0.00         0.00
      6.0        8.46            0.00            0.00          8.46         0.00         0.00
      1.0        7.07            0.00            0.00          7.07         0.00         0.00


Harvested Random Seeds after Generation of the Random Numbers:

   2107445636 Harvested seed # 1
    619508673 Harvested seed # 2


Hub-Height Simulated Turbulence Statistical Summary:

   Type of Wind        Min (m/s)   Mean (m/s)    Max (m/s)  Sigma (m/s)       TI (%)
   ----------------    ---------   ----------    ---------  -----------       ------
   Longitudinal (u)         5.23        11.67        19.38        2.178       18.656
   Lateral (v)             -6.50         0.00         7.08        2.059       17.639
   Vertical (w)            -3.70        -0.00         3.66        1.090        9.340
   U component              5.23        11.67        19.38        2.178       18.656
   V component             -6.50         0.00         7.08        2.059       17.639
   W component             -3.70        -0.00         3.66        1.090        9.340
   Horizontal (U&V)         5.27        11.86        19.40        2.162       18.233
   Total                    5.53        11.91        19.44        2.151       18.063

                       Min Reynolds     Mean Reynolds    Max Reynolds    Correlation
   Product             Stress (m/s)^2   Stress (m/s)^2   Stress (m/s)^2  Coefficient
   ----------------    --------------   --------------   --------------  -----------
   u'w'                    -13.741            -0.208            13.853        -0.088
   u'v'                    -19.528             0.305            21.167         0.068
   v'w'                    -24.802             0.198            14.926         0.088


   Friction Velocity (Ustar)  =      0.456 m/s
   Maximum Instantaneous TKE  =     31.217 (m/s)^2
   Maximum Instantaneous CTKE =     12.705 (m/s)^2


Grid Point Variance Summary:

   Y-coord -180.00 -175.00 -170.00 -165.00 -160.00 -155.00 -150.00 -145.00 -140.00 -135.00 -130.00 -125.00 -120.00 -115.00 -110.00 -105.00 -100.00  -95.00  -90.00  -85.00  -80.00  -75.00  -70.00  -65.00  -60.00  -55.00  -50.00  -45.00  -40.00  -35.00  -30.00  -25.00  -20.00  -15.00  -10.00   -5.00    0.00    5.00   10.00   15.00   20.00   25.00   30.00   35.00   40.00   45.00   50.00   55.00   60.00   65.00   70.00   75.00   80.00   85.00   90.00   95.00  100.00  105.00  110.00  115.00  120.00  125.00  130.00  135.00  140.00  145.00  150.00  155.00  160.00  165.00  170.00  175.00  180.00

   Height   Standard deviation at grid points for the u component:
   301.00    2.226   2.234   2.071   1.994   2.119   2.236   2.145   2.063   2.158   2.144   2.219   2.155   2.157   2.375   2.382   2.218   2.162   2.247   2.208   2.096   1.949   2.048   1.999   1.905   2.078   2.061   2.100   2.215   2.211   2.188   1.950   2.130   2.053   2.118   2.123   2.193   2.225   2.438   2.464   2.506   2.487   2.346   2.217   2.230   2.204   2.144   2.126   2.365   2.143   2.166   2.096   2.027   1.913   1.780   1.938   2.011   2.065   1.979   2.122   2.065   1.944   1.872   1.942   2.062   2.054   2.063   2.183   2.316   2.367   2.428   2.336   2.436   2.553
   296.00    2.257   2.118   2.127   2.066   2.211   2.300   2.392   2.248   2.303   2.208   2.199   2.127   2.188   2.275   2.296   2.141   2.072   2.185   2.150   2.035   2.081   1.904   2.082   2.193   2.104   2.111   2.266   2.272   2.181   2.233   2.118   2.125   2.051   2.001   2.113   2.222   2.282   2.496   2.514   2.504   2.387   2.436   2.337   2.269   2.339   2.231   2.295   2.381   2.214   2.041   2.105   2.118   1.893   1.744   1.750   1.914   1.876   1.874   2.045   2.037   1.904   1.952   1.999   2.045   2.268   2.198   2.233   2.189   2.277   2.614   2.358   2.474   2.542
   291.00    2.200   2.068   2.166   2.249   2.153   2.192   2.468   2.367   2.380   2.289   2.127   2.177   2.200   2.200   2.198   2.071   2.060   2.117   2.191   2.229   2.107   2.006   2.192   2.188   2.087   2.149   2.287   2.169   2.112   2.325   2.077   2.156   1.999   2.170   2.134   2.207   2.386   2.461   2.305   2.371   2.409   2.443   2.628   2.538   2.231   2.169   2.315   2.379   2.268   2.382   2.175   2.207   1.965   1.922   1.856   1.926   1.834   1.842   1.991   1.917   1.837   1.854   1.863   2.024   2.207   2.316   2.262   2.447   2.407   2.532   2.441   2.353   2.400
   286.00    2.280   2.105   2.235   2.198   2.176   2.186   2.424   2.383   2.330   2.348   2.258   1.983   2.069   2.168   2.074   2.107   2.087   2.068   2.196   2.190   2.055   2.031   2.183   2.099   2.126   2.297   2.185   2.114   2.114   2.175   2.235   2.250   2.329   2.293   2.270   2.180   2.244   2.203   2.117   2.153   2.346   2.419   2.512   2.520   2.251   2.231   2.346   2.474   2.378   2.471   2.314   2.289   2.081   2.006   1.893   2.007   1.826   1.889   1.918   1.993   1.911   1.844   1.821   1.910   2.212   2.338   2.504   2.530   2.556   2.485   2.517   2.599   2.463
   281.00    2.225   2.280   2.236   2.306   2.282   2.381   2.351   2.473   2.441   2.337   2.320   2.051   2.035   2.034   1.966   2.092   2.219   2.073   2.226   2.171   2.216   2.151   2.147   2.235   2.218   2.155   2.213   2.194   2.196   2.130   2.201   2.275   2.209   2.214   2.252   2.148   2.060   1.969   2.110   2.127   2.240   2.380   2.437   2.527   2.289   2.215   2.342   2.420   2.614   2.552   2.437   2.455   2.387   2.106   2.060   2.086   2.071   2.105   2.101   1.979   2.011   1.908   1.869   1.847   2.176   2.370   2.426   2.520   2.529   2.435   2.608   2.475   2.346
   276.00    2.295   2.011   2.039   2.345   2.518   2.480   2.284   2.417   2.282   2.267   2.143   2.242   2.170   1.961   2.135   2.141   2.078   2.088   2.202   2.274   2.272   2.288   2.127   2.191   2.159   2.123   2.290   2.203   2.202   2.276   2.137   2.043   2.210   2.101   2.166   1.929   2.115   2.022   2.137   2.114   2.217   2.297   2.274   2.502   2.490   2.304   2.407   2.478   2.600   2.514   2.523   2.500   2.327   2.203   2.210   2.270   2.090   1.982   2.043   2.078   1.949   1.859   1.951   2.129   2.235   2.359   2.415   2.301   2.407   2.364   2.522   2.452   2.491
   271.00    2.389   2.184   2.202   2.221   2.335   2.347   2.139   2.367   2.298   2.199   2.450   2.463   2.241   2.033   2.056   2.098   2.213   2.386   2.252   2.331   2.360   2.320   2.344   2.366   2.303   2.262   2.204   2.239   2.438   2.344   2.292   2.067   2.068   2.100   2.123   1.914   2.053   2.018   2.093   2.041   2.212   2.319   2.212   2.335   2.369   2.457   2.286   2.343   2.506   2.498   2.431   2.375   2.333   2.160   2.151   2.248   2.072   2.041   2.063   2.036   2.221   1.920   2.031   2.175   2.234   2.384   2.436   2.366   2.324   2.408   2.411   2.339   2.431
   266.00    2.238   2.087   2.171   2.111   2.274   2.184   2.371   2.314   2.216   2.406   2.613   2.566   2.275   2.207   2.353   2.222   2.244   2.248   2.401   2.288   2.531   2.393   2.341   2.298   2.204   2.261   2.201   2.175   2.313   2.469   2.418   2.224   2.253   2.195   2.068   2.007   2.064   2.085   2.164   2.108   2.142   2.076   2.262   2.318   2.460   2.469   2.471   2.321   2.419   2.397   2.505   2.286   2.300   2.144   2.078   2.069   2.112   1.950   2.040   1.902   1.965   1.894   2.005   2.179   2.285   2.409   2.359   2.476   2.320   2.304   2.388   2.410   2.380
   261.00    2.246   2.158   2.172   2.234   2.290   2.413   2.483   2.422   2.495   2.555   2.726   2.643   2.482   2.587   2.595   2.577   2.487   2.215   2.388   2.407   2.545   2.357   2.303   2.128   2.164   2.112   2.106   2.182   2.222   2.297   2.237   2.112   2.141   2.216   2.148   2.127   2.106   2.307   2.079   2.083   2.067   1.951   2.056   2.227   2.243   2.387   2.430   2.460   2.522   2.311   2.383   2.296   2.301   2.169   2.011   2.005   2.052   2.057   2.066   2.067   1.990   1.916   1.997   2.153   2.167   2.289   2.368   2.360   2.449   2.354   2.499   2.591   2.556
   256.00    2.359   2.359   2.203   2.307   2.248   2.373   2.540   2.432   2.554   2.572   2.672   2.605   2.477   2.424   2.737   2.669   2.607   2.397   2.425   2.556   2.470   2.495   2.188   2.100   1.973   1.890   2.045   2.161   2.159   2.270   2.198   2.173   2.112   2.186   2.160   2.205   2.087   2.112   2.149   2.159   2.159   1.959   2.142   2.269   2.339   2.410   2.373   2.337   2.302   2.299   2.244   2.196   2.300   2.137   2.133   1.970   2.031   2.064   2.201   2.266   2.195   2.212   2.107   1.917   1.930   2.152   2.151   2.256   2.469   2.725   2.493   2.666   2.544
   251.00    2.543   2.437   2.341   2.231   2.260   2.398   2.404   2.336   2.374   2.505   2.572   2.485   2.564   2.446   2.674   2.596   2.546   2.346   2.533   2.359   2.379   2.375   2.306   2.056   1.960   1.952   1.963   2.032   2.031   2.288   2.194   2.281   2.167   2.182   2.189   2.182   2.107   1.986   2.237   2.137   2.131   1.939   2.221   2.163   2.253   2.407   2.453   2.364   2.227   2.142   2.305   2.310   2.192   2.074   1.945   1.995   2.072   2.185   2.228   2.224   2.249   2.074   2.080   1.969   1.988   2.102   2.157   2.211   2.521   2.577   2.445   2.668   2.593
   246.00    2.556   2.423   2.374   2.352   2.289   2.239   2.368   2.456   2.364   2.573   2.563   2.561   2.568   2.506   2.561   2.628   2.389   2.438   2.561   2.381   2.344   2.257   2.261   2.193   2.131   2.169   2.173   2.193   2.215   2.268   2.436   2.392   2.240   2.239   2.309   2.140   2.230   2.235   2.340   2.267   2.178   2.178   2.141   2.132   2.216   2.252   2.206   2.213   2.121   2.129   2.309   2.327   2.172   2.016   1.943   1.966   2.186   2.231   2.247   2.303   2.240   2.314   2.208   2.064   2.078   2.013   2.013   2.274   2.285   2.517   2.576   2.456   2.467
   241.00    2.482   2.534   2.468   2.200   2.142   2.295   2.273   2.394   2.484   2.372   2.492   2.605   2.601   2.589   2.657   2.555   2.560   2.454   2.455   2.366   2.487   2.425   2.359   2.242   2.181   2.304   2.228   2.158   2.145   2.292   2.309   2.491   2.413   2.424   2.315   2.123   2.310   2.387   2.436   2.281   2.380   2.288   2.214   2.215   2.158   2.307   2.171   2.009   1.961   2.110   2.207   2.253   2.293   2.170   1.951   1.986   2.210   2.232   2.255   2.238   2.121   2.304   2.201   2.061   2.114   2.030   2.183   2.384   2.461   2.262   2.237   2.258   2.201
   236.00    2.559   2.545   2.196   2.170   1.969   2.109   2.189   2.116   2.304   2.234   2.348   2.391   2.503   2.508   2.539   2.534   2.461   2.554   2.608   2.482   2.446   2.558   2.342   2.304   2.334   2.457   2.343   2.238   2.224   2.421   2.295   2.420   2.383   2.415   2.341   2.373   2.413   2.421   2.390   2.240   2.416   2.306   2.350   2.151   2.058   2.226   2.252   2.205   2.207   2.178   2.066   2.301   2.345   2.185   2.109   2.177   2.377   2.209   2.344   2.264   2.210   2.400   2.306   2.142   2.253   2.119   2.268   2.453   2.256   2.353   2.342   2.243   2.160
   231.00    2.389   2.297   2.197   2.115   2.153   2.181   2.118   2.145   2.268   2.198   2.225   2.070   2.377   2.370   2.488   2.582   2.424   2.657   2.619   2.624   2.506   2.623   2.456   2.427   2.426   2.365   2.308   2.317   2.257   2.280   2.314   2.276   2.372   2.393   2.344   2.521   2.596   2.473   2.445   2.405   2.493   2.265   2.188   2.205   2.117   2.237   2.209   2.081   2.163   2.248   2.138   2.179   2.207   2.387   2.254   2.417   2.284   2.259   2.263   2.151   2.235   2.270   2.089   2.099   2.113   2.323   2.358   2.298   2.211   2.319   2.178   2.147   2.129
   226.00    2.205   2.189   2.018   2.078   2.171   2.203   2.261   2.188   2.151   2.267   2.088   2.071   2.261   2.336   2.481   2.400   2.384   2.481   2.459   2.478   2.374   2.407   2.329   2.478   2.389   2.321   2.287   2.276   2.311   2.250   2.212   2.186   2.215   2.408   2.363   2.457   2.379   2.321   2.294   2.186   2.367   2.366   2.167   2.157   2.116   2.192   2.140   2.199   2.197   2.261   2.187   2.125   2.125   2.287   2.513   2.580   2.276   2.223   2.053   2.046   2.224   2.223   1.984   2.121   2.239   2.278   2.304   2.147   2.149   2.203   2.159   2.107   2.103
   221.00    2.341   2.259   2.208   2.132   2.147   2.366   2.161   2.217   2.235   2.306   2.268   2.276   2.255   2.412   2.239   2.314   2.475   2.552   2.544   2.603   2.403   2.369   2.250   2.266   2.342   2.275   2.341   2.339   2.208   2.306   2.259   2.239   2.220   2.322   2.328   2.321   2.186   2.300   2.208   2.212   2.269   2.326   2.076   1.970   2.074   2.077   1.975   2.160   2.110   2.218   2.165   2.087   2.115   2.333   2.495   2.706   2.387   2.279   2.078   2.058   2.096   1.992   2.168   2.046   2.228   2.136   2.102   1.996   1.959   2.116   2.091   2.055   2.107
   216.00    2.328   2.291   2.142   2.203   2.389   2.323   2.263   2.305   2.203   2.284   2.278   2.361   2.418   2.340   2.322   2.478   2.483   2.273   2.426   2.423   2.303   2.254   2.118   2.172   2.100   2.246   2.407   2.324   2.364   2.277   2.287   2.129   2.223   2.276   2.306   2.334   2.202   2.077   2.126   2.285   2.210   2.118   1.921   2.035   2.102   2.145   1.970   2.144   2.146   2.147   2.155   2.197   2.141   2.160   2.338   2.545   2.308   2.028   2.044   2.147   1.977   2.032   2.122   2.045   1.944   2.122   1.927   1.928   1.848   1.917   2.049   2.009   2.143
   211.00    2.479   2.348   2.146   2.239   2.472   2.357   2.382   2.267   2.308   2.291   2.294   2.330   2.362   2.279   2.481   2.456   2.572   2.370   2.374   2.451   2.241   2.127   2.100   2.160   2.098   2.372   2.337   2.450   2.433   2.305   2.208   2.243   2.201   2.292   2.343   2.318   2.302   2.178   2.093   2.101   2.203   2.054   1.996   1.997   2.145   2.189   2.179   2.076   2.077   1.999   2.063   2.068   2.135   1.941   2.106   2.214   2.219   2.089   2.076   1.972   2.025   2.008   2.124   2.134   1.924   2.081   1.883   1.828   1.996   2.027   2.067   2.014   2.231
   206.00    2.420   2.356   2.359   2.391   2.421   2.277   2.282   2.472   2.390   2.247   2.313   2.234   2.287   2.344   2.520   2.605   2.409   2.527   2.492   2.485   2.390   2.124   2.037   1.998   2.079   2.274   2.364   2.416   2.516   2.385   2.410   2.314   2.362   2.042   2.171   2.086   2.076   2.139   2.148   2.165   2.079   2.133   2.111   2.048   2.229   2.143   2.178   2.007   2.089   2.179   2.083   2.077   2.058   2.148   2.048   2.225   2.031   1.983   2.024   1.928   1.968   1.992   1.910   1.923   1.964   1.969   2.051   2.086   2.066   2.204   2.085   2.230   2.235
   201.00    2.464   2.413   2.421   2.208   2.371   2.217   2.227   2.385   2.334   2.247   2.241   2.315   2.439   2.378   2.426   2.342   2.294   2.392   2.201   2.427   2.540   2.255   2.235   2.107   2.123   2.162   2.165   2.283   2.337   2.319   2.288   2.218   2.281   2.225   2.152   2.113   2.030   2.189   2.142   2.181   2.157   2.168   2.154   2.094   2.030   2.212   2.171   1.958   2.100   2.239   2.015   2.143   2.108   2.065   2.016   2.001   2.029   2.117   2.162   1.966   1.978   1.884   1.880   1.885   1.874   1.849   1.983   2.001   1.987   2.191   2.309   2.299   2.422
   196.00    2.439   2.375   2.429   2.338   2.382   2.336   2.402   2.532   2.483   2.434   2.398   2.154   2.255   2.323   2.400   2.263   2.282   2.256   2.230   2.275   2.244   2.528   2.442   2.188   2.080   2.076   2.238   2.341   2.238   2.268   2.070   2.248   2.053   2.137   2.082   2.177   2.126   2.267   2.252   2.346   2.240   2.236   2.138   1.959   1.958   2.125   2.226   1.998   2.020   2.021   1.998   2.091   2.049   2.043   2.027   2.054   1.952   1.974   2.040   2.164   1.919   2.046   1.978   2.022   1.944   1.859   1.910   1.904   2.074   2.229   2.369   2.444   2.246
   191.00    2.402   2.403   2.356   2.346   2.355   2.554   2.433   2.378   2.468   2.330   2.201   2.222   2.225   2.264   2.378   2.417   2.253   2.305   2.274   2.342   2.442   2.347   2.423   2.197   2.106   2.132   2.218   2.367   2.136   2.297   2.207   2.182   2.067   2.058   1.900   1.933   2.064   2.163   2.399   2.397   2.323   2.249   2.187   1.935   1.906   2.076   1.935   1.979   1.968   1.993   2.127   2.136   2.221   1.967   1.939   1.845   1.833   1.880   1.889   2.077   2.060   2.043   2.106   2.100   2.078   2.048   2.017   1.999   1.887   2.176   2.369   2.445   2.317
   186.00    2.181   2.380   2.302   2.449   2.333   2.407   2.416   2.363   2.419   2.239   2.144   2.262   2.360   2.290   2.236   2.289   2.197   2.296   2.341   2.374   2.396   2.380   2.433   2.460   2.199   2.085   2.250   2.281   2.306   2.270   2.330   2.328   2.050   1.971   1.851   1.982   2.037   2.122   2.226   2.341   2.324   2.321   2.179   2.054   1.988   2.024   2.033   2.093   1.952   1.962   1.959   2.010   2.115   1.958   1.904   1.784   1.768   1.864   1.958   2.030   2.136   2.191   2.169   1.974   2.101   2.128   2.037   2.009   2.071   2.286   2.281   2.283   2.409
   181.00    2.387   2.371   2.312   2.437   2.399   2.465   2.383   2.278   2.282   2.271   2.356   2.233   2.292   2.193   2.279   2.256   2.187   2.160   2.200   2.462   2.344   2.316   2.373   2.483   2.131   2.224   2.331   2.337   2.357   2.169   2.103   2.059   2.065   2.058   2.193   2.154   2.137   2.210   2.212   2.343   2.289   2.360   2.163   2.015   2.008   1.827   1.813   2.002   1.994   1.991   1.919   1.855   1.871   1.837   1.817   1.723   1.797   1.990   2.021   2.160   2.216   2.130   2.072   1.980   2.209   2.226   2.045   1.987   2.114   2.343   2.435   2.455   2.471
   176.00    2.395   2.389   2.496   2.474   2.449   2.475   2.372   2.237   2.261   2.210   2.170   2.133   2.238   2.098   2.148   2.168   2.279   2.001   2.169   2.247   2.418   2.470   2.438   2.368   2.378   2.262   2.401   2.445   2.339   2.233   2.012   2.081   2.064   2.159   2.123   2.091   2.221   2.258   2.372   2.243   2.292   2.374   2.253   2.165   1.968   1.903   1.914   1.902   1.864   1.914   1.860   1.720   1.693   1.664   1.604   1.767   1.806   1.867   2.029   2.090   2.097   1.990   2.058   2.068   2.323   2.229   2.313   2.126   2.152   2.391   2.577   2.565   2.722
   171.00    2.515   2.429   2.535   2.453   2.515   2.398   2.380   2.283   2.163   2.252   2.112   2.142   2.106   1.981   1.974   2.082   2.136   2.030   2.202   2.287   2.347   2.465   2.614   2.423   2.364   2.445   2.333   2.374   2.333   2.362   2.131   2.387   2.315   2.154   2.157   2.094   2.252   2.278   2.357   2.268   2.213   2.438   2.290   2.243   2.020   1.916   1.900   1.895   1.992   1.971   1.865   1.607   1.580   1.630   1.645   1.761   1.887   1.986   2.182   2.254   2.130   2.186   2.054   2.142   2.441   2.243   2.286   2.086   2.162   2.306   2.572   2.610   2.609
   166.00    2.580   2.600   2.390   2.421   2.427   2.471   2.395   2.177   2.249   2.293   2.258   2.187   2.234   2.050   1.908   2.067   2.166   2.166   2.134   2.371   2.322   2.341   2.496   2.567   2.537   2.454   2.434   2.507   2.423   2.395   2.314   2.233   2.269   2.117   2.291   2.284   2.390   2.326   2.313   2.097   2.310   2.295   2.277   2.096   2.127   2.040   2.042   2.206   2.030   2.056   1.977   1.787   1.732   1.611   1.740   1.773   1.913   2.170   2.336   2.524   2.379   2.188   2.231   2.294   2.374   2.322   2.305   2.175   2.350   2.349   2.412   2.477   2.288
   161.00    2.705   2.631   2.647   2.709   2.539   2.362   2.309   2.262   2.188   2.157   2.228   2.107   2.013   2.052   2.053   2.043   2.111   2.173   2.182   2.435   2.428   2.598   2.576   2.450   2.459   2.476   2.473   2.520   2.494   2.420   2.265   2.238   2.070   2.098   2.200   2.313   2.309   2.256   2.156   2.214   2.277   2.304   2.423   2.146   2.154   2.276   2.203   2.298   2.110   2.178   2.226   1.991   1.974   1.986   1.899   1.926   2.091   2.129   2.188   2.364   2.445   2.358   2.257   2.329   2.337   2.484   2.412   2.402   2.289   2.247   2.374   2.237   2.206
   156.00    2.528   2.656   2.710   2.683   2.729   2.479   2.224   2.240   2.212   2.119   2.011   1.991   1.995   1.939   1.866   1.984   2.013   2.083   2.099   2.218   2.434   2.441   2.684   2.323   2.354   2.392   2.445   2.763   2.569   2.378   2.130   2.451   2.373   2.179   2.182   2.254   2.025   2.189   2.255   2.204   2.273   2.242   2.206   2.320   2.195   2.355   2.393   2.292   2.266   2.059   2.230   2.084   1.964   2.141   2.175   2.125   2.176   2.284   2.397   2.406   2.663   2.498   2.639   2.533   2.501   2.473   2.357   2.324   2.258   2.205   2.241   2.163   2.126
   151.00    2.643   2.632   2.586   2.433   2.522   2.561   2.190   2.091   2.051   2.083   2.077   1.994   1.933   2.006   1.992   1.896   1.948   1.968   2.273   2.273   2.470   2.604   2.595   2.533   2.475   2.518   2.520   2.630   2.388   2.271   2.320   2.446   2.268   2.344   2.173   2.133   2.178   2.241   2.305   2.222   2.015   2.118   2.168   2.131   2.233   2.212   2.209   2.092   2.138   2.245   2.166   2.057   2.167   2.135   2.308   2.252   2.217   2.375   2.495   2.563   2.547   2.681   2.723   2.607   2.616   2.577   2.298   2.509   2.324   2.452   2.202   2.156   2.067
   146.00    2.523   2.675   2.550   2.387   2.456   2.435   2.308   2.075   2.044   2.075   1.988   1.894   1.908   2.014   1.908   1.848   1.826   2.038   2.267   2.449   2.556   2.594   2.500   2.400   2.332   2.511   2.696   2.745   2.677   2.584   2.572   2.534   2.338   2.397   2.340   2.216   2.220   2.242   2.142   2.111   2.172   2.271   2.094   2.267   2.118   2.145   2.083   2.103   2.106   2.216   2.221   2.100   2.177   2.311   2.388   2.342   2.483   2.484   2.648   2.695   2.506   2.542   2.838   2.706   2.543   2.605   2.555   2.602   2.510   2.602   2.522   2.335   2.278
   141.00    2.504   2.673   2.500   2.510   2.493   2.300   2.275   2.152   2.060   2.027   2.014   2.054   2.146   2.122   1.922   1.875   2.004   1.936   2.147   2.223   2.355   2.365   2.505   2.481   2.630   2.549   2.589   2.645   2.798   2.537   2.550   2.416   2.439   2.309   2.342   2.332   2.330   2.293   2.050   2.148   2.324   2.348   2.284   2.147   2.174   2.177   2.180   2.214   2.312   2.203   2.161   2.323   2.364   2.302   2.285   2.311   2.563   2.704   2.601   2.604   2.607   2.657   2.778   2.612   2.655   2.632   2.666   2.640   2.799   2.659   2.469   2.440   2.345
   136.00    2.361   2.497   2.530   2.558   2.398   2.319   2.096   2.092   1.899   1.922   1.964   2.086   2.180   1.900   2.038   2.099   2.024   1.914   2.009   2.202   2.268   2.270   2.446   2.598   2.571   2.621   2.712   2.733   2.710   2.627   2.646   2.590   2.386   2.331   2.429   2.223   2.171   2.178   1.966   2.128   2.205   2.392   2.233   2.190   1.992   2.107   2.246   2.261   2.189   2.102   2.299   2.348   2.543   2.242   2.353   2.498   2.541   2.806   2.573   2.434   2.592   2.440   2.642   2.567   2.725   2.719   2.578   2.525   2.674   2.687   2.758   2.583   2.510
   131.00    2.328   2.311   2.521   2.517   2.386   2.191   2.032   2.080   1.874   1.899   1.913   1.819   1.959   1.978   2.023   1.897   2.031   2.124   2.192   2.236   2.282   2.289   2.353   2.413   2.524   2.723   2.815   2.926   2.741   2.794   2.718   2.549   2.254   2.179   2.262   2.153   2.046   2.136   2.149   2.103   2.134   2.255   2.144   2.032   1.862   1.979   2.118   2.122   2.031   2.141   2.359   2.380   2.443   2.196   2.373   2.414   2.654   2.705   2.496   2.395   2.490   2.496   2.475   2.534   2.524   2.573   2.518   2.674   2.651   2.847   2.862   2.837   2.802
   126.00    2.395   2.269   2.462   2.488   2.295   2.078   2.040   2.061   1.945   1.926   1.902   1.898   1.942   1.884   2.046   1.853   2.059   2.040   2.184   2.194   2.077   2.204   2.178   2.208   2.559   2.771   2.832   2.841   2.942   2.840   2.785   2.644   2.379   2.209   2.427   2.291   2.226   2.291   2.115   2.051   1.993   2.030   2.158   1.905   1.848   1.858   1.985   2.080   2.151   2.206   2.332   2.491   2.513   2.342   2.375   2.575   2.676   2.697   2.621   2.541   2.524   2.423   2.469   2.544   2.515   2.620   2.884   2.707   2.758   2.896   2.927   2.819   2.850
   121.00    2.434   2.288   2.368   2.379   2.207   2.104   2.070   2.095   1.909   1.955   1.878   1.831   1.852   1.928   2.057   2.049   2.156   2.134   2.344   2.260   2.257   2.218   2.199   2.187   2.519   2.697   2.966   2.932   3.001   2.979   2.999   2.704   2.479   2.249   2.260   2.267   2.180   2.335   2.268   2.141   2.029   2.050   2.218   1.991   1.993   1.976   1.951   2.009   2.349   2.480   2.612   2.561   2.541   2.312   2.409   2.331   2.452   2.507   2.674   2.542   2.448   2.486   2.607   2.591   2.555   2.590   2.810   2.953   2.770   2.783   2.954   2.873   2.952
   116.00    2.283   2.339   2.360   2.353   2.201   2.120   2.198   1.919   1.825   1.696   1.847   1.913   2.066   1.897   2.243   2.284   2.171   2.361   2.594   2.391   2.346   2.255   2.363   2.602   2.511   2.632   2.752   2.895   2.982   2.842   2.879   2.779   2.465   2.250   2.194   2.363   2.430   2.348   2.353   2.205   2.070   2.089   1.965   1.996   1.988   1.957   2.085   2.335   2.341   2.376   2.598   2.504   2.547   2.613   2.597   2.501   2.502   2.524   2.455   2.564   2.507   2.616   2.725   2.752   2.537   2.607   2.782   3.049   3.030   2.998   2.950   3.071   3.019
   111.00    2.322   2.208   2.181   2.086   2.032   1.980   2.162   1.932   1.893   1.878   1.770   1.822   1.927   2.023   2.190   2.297   2.200   2.270   2.429   2.242   2.205   2.139   2.221   2.400   2.594   2.490   2.610   2.903   2.848   2.900   2.676   2.526   2.446   2.345   2.266   2.297   2.351   2.199   2.130   2.069   1.958   2.001   2.188   2.029   2.129   2.130   2.166   2.466   2.441   2.586   2.669   2.516   2.441   2.486   2.406   2.403   2.348   2.370   2.470   2.636   2.747   2.781   2.862   2.766   2.666   2.995   2.879   3.009   3.234   3.232   3.153   3.148   3.015
   106.00    2.234   2.188   2.088   2.182   1.861   1.798   1.901   1.921   1.891   1.781   1.846   1.781   1.959   2.060   2.004   2.192   2.281   2.220   2.314   2.376   2.320   2.166   2.254   2.281   2.485   2.510   2.672   2.786   2.726   2.836   2.764   2.598   2.546   2.308   2.285   2.296   2.292   2.220   2.145   2.058   2.175   2.159   2.243   2.152   2.260   2.268   2.277   2.468   2.604   2.510   2.678   2.659   2.446   2.585   2.414   2.354   2.451   2.562   2.543   2.583   2.752   2.854   2.986   2.814   2.962   2.995   2.949   3.003   3.024   3.020   3.155   3.182   3.001
   101.00    2.079   2.117   1.955   2.138   1.962   1.954   1.972   2.001   1.901   1.905   1.863   1.818   1.899   1.867   2.010   2.182   2.203   2.184   2.296   2.341   2.353   2.328   2.141   2.211   2.335   2.474   2.517   2.746   2.834   2.862   2.801   2.802   2.604   2.465   2.305   2.391   2.341   2.423   2.270   2.193   2.296   2.293   2.214   2.349   2.475   2.293   2.482   2.698   2.634   2.772   2.684   2.604   2.608   2.571   2.636   2.365   2.418   2.620   2.798   2.797   2.603   2.799   2.894   2.881   2.930   2.940   2.886   2.752   2.656   2.888   2.918   2.998   3.238
    96.00    1.934   2.093   2.077   1.990   1.943   1.885   1.933   2.040   1.895   1.762   1.710   1.759   1.862   1.821   1.859   2.082   2.234   2.314   2.344   2.485   2.405   2.263   2.233   2.314   2.311   2.592   2.710   2.821   2.875   2.905   2.662   2.626   2.595   2.531   2.526   2.479   2.497   2.629   2.401   2.466   2.292   2.347   2.341   2.398   2.472   2.517   2.584   2.513   2.594   2.820   2.805   2.519   2.516   2.405   2.474   2.427   2.514   2.569   2.704   2.585   2.584   2.548   2.844   2.960   2.685   2.937   2.792   2.618   2.600   2.792   2.808   3.003   3.294
    91.00    1.994   2.173   2.273   2.111   1.944   2.012   2.015   2.016   1.815   1.889   1.663   1.816   1.816   1.743   1.838   1.970   2.019   2.225   2.243   2.342   2.274   2.368   2.317   2.430   2.577   2.595   2.567   2.617   2.965   2.800   2.707   2.599   2.729   2.581   2.744   2.803   2.692   2.586   2.432   2.267   2.293   2.221   2.271   2.468   2.519   2.516   2.488   2.439   2.718   2.727   2.719   2.675   2.657   2.455   2.580   2.579   2.483   2.596   2.698   2.720   2.804   2.749   2.779   2.686   2.907   2.992   2.735   2.687   2.805   2.715   2.854   3.158   3.023
    86.00    2.152   2.314   2.449   2.300   2.123   2.041   2.069   1.960   1.922   1.992   1.893   1.864   1.861   1.799   1.871   1.863   1.843   2.129   2.212   2.217   2.214   2.455   2.353   2.474   2.617   2.450   2.678   2.589   2.650   2.640   2.675   2.681   2.609   2.753   2.730   2.775   2.747   2.640   2.339   2.457   2.479   2.400   2.473   2.460   2.456   2.517   2.635   2.771   2.727   2.556   2.471   2.543   2.438   2.533   2.534   2.373   2.449   2.386   2.447   2.550   2.645   2.732   2.842   2.857   2.861   2.859   2.885   2.713   2.816   2.710   2.880   3.227   3.117
    81.00    2.271   2.101   2.270   2.324   2.054   2.101   1.938   1.938   1.877   1.955   1.982   1.848   1.909   1.974   1.834   1.864   1.824   1.916   2.210   2.317   2.295   2.324   2.419   2.566   2.684   2.503   2.501   2.425   2.704   2.672   2.607   2.594   2.426   2.495   2.455   2.731   2.948   2.549   2.386   2.603   2.579   2.641   2.582   2.552   2.405   2.558   2.751   2.805   2.663   2.610   2.540   2.283   2.331   2.402   2.493   2.367   2.477   2.393   2.611   2.542   2.621   2.733   2.867   3.043   3.079   2.910   2.956   2.737   2.626   2.721   2.967   3.123   3.056
    76.00    2.134   2.194   2.295   2.411   2.139   2.156   1.998   2.044   1.928   1.877   1.863   1.927   1.945   1.919   1.778   1.817   1.892   1.938   2.158   2.271   2.271   2.438   2.411   2.508   2.399   2.354   2.363   2.435   2.539   2.441   2.501   2.443   2.373   2.331   2.272   2.415   2.594   2.644   2.470   2.773   2.733   2.541   2.685   2.608   2.695   2.713   2.703   2.847   2.604   2.497   2.547   2.541   2.426   2.434   2.504   2.381   2.606   2.541   2.409   2.582   2.645   2.705   3.086   3.127   3.145   2.943   2.799   2.736   2.716   2.885   2.624   2.879   3.064
    71.00    2.182   2.267   2.307   2.281   1.969   2.059   1.841   1.868   1.902   1.961   2.041   2.073   1.837   1.802   1.749   1.727   1.927   2.087   2.118   2.065   2.250   2.565   2.437   2.445   2.386   2.332   2.303   2.335   2.541   2.517   2.517   2.524   2.459   2.430   2.276   2.317   2.450   2.518   2.594   2.690   2.641   2.540   2.567   2.642   2.708   2.601   2.708   2.655   2.576   2.625   2.576   2.555   2.453   2.653   2.434   2.275   2.509   2.512   2.445   2.524   2.636   2.799   2.973   2.991   2.973   2.913   2.730   2.759   2.862   2.837   2.721   2.852   2.903
    66.00    2.119   2.228   2.215   2.234   2.222   1.999   1.768   1.806   1.822   1.828   2.038   1.883   1.931   1.686   1.632   1.653   1.726   1.923   1.925   2.093   2.368   2.443   2.381   2.387   2.240   2.429   2.455   2.444   2.586   2.585   2.573   2.445   2.442   2.608   2.470   2.341   2.444   2.531   2.500   2.550   2.472   2.318   2.330   2.235   2.413   2.508   2.623   2.581   2.521   2.556   2.482   2.572   2.741   2.612   2.481   2.509   2.370   2.417   2.495   2.588   2.840   2.978   3.027   2.922   2.792   2.735   2.556   2.596   2.801   2.801   2.788   2.586   2.716
    61.00    1.946   2.076   2.054   1.980   2.014   1.958   1.767   1.689   1.688   1.792   1.767   1.748   1.873   1.788   1.754   1.783   1.640   1.885   1.893   2.183   2.270   2.325   2.519   2.425   2.493   2.645   2.457   2.560   2.621   2.592   2.493   2.464   2.439   2.414   2.508   2.514   2.524   2.481   2.649   2.526   2.314   2.292   2.172   2.349   2.522   2.549   2.486   2.394   2.392   2.555   2.405   2.348   2.475   2.592   2.539   2.433   2.398   2.524   2.448   2.456   2.625   2.738   2.813   2.694   2.705   2.571   2.448   2.614   2.889   2.950   2.907   2.703   2.695
    56.00    2.021   2.027   2.022   1.862   1.898   1.838   1.916   1.882   1.921   1.959   1.809   1.901   1.906   1.841   1.851   1.846   1.734   1.816   1.878   2.110   2.140   2.167   2.273   2.533   2.617   2.605   2.552   2.614   2.653   2.619   2.408   2.446   2.500   2.529   2.597   2.489   2.398   2.550   2.414   2.396   2.432   2.415   2.301   2.378   2.550   2.659   2.400   2.496   2.312   2.298   2.180   2.349   2.427   2.453   2.593   2.400   2.633   2.519   2.323   2.386   2.306   2.507   2.617   2.719   2.504   2.578   2.409   2.523   2.768   2.864   2.780   2.587   2.706
    51.00    1.944   1.981   2.049   1.911   2.089   1.914   1.909   1.778   1.989   1.835   1.775   2.001   2.053   1.870   1.946   1.839   1.898   2.043   2.091   2.123   2.071   2.130   2.370   2.537   2.395   2.570   2.628   2.609   2.749   2.517   2.527   2.625   2.520   2.395   2.491   2.519   2.453   2.342   2.348   2.293   2.334   2.359   2.576   2.493   2.630   2.652   2.535   2.389   2.263   2.274   2.284   2.351   2.418   2.431   2.426   2.526   2.564   2.357   2.347   2.489   2.347   2.574   2.698   2.590   2.484   2.311   2.483   2.472   2.756   2.701   2.661   2.590   2.526
    46.00    2.115   1.957   1.979   2.112   2.078   2.144   1.909   1.915   2.123   2.145   2.122   2.159   2.139   1.988   2.034   1.940   2.028   2.003   2.076   1.979   2.079   2.205   2.416   2.513   2.379   2.457   2.321   2.525   2.599   2.524   2.609   2.479   2.507   2.369   2.417   2.545   2.472   2.522   2.505   2.482   2.316   2.361   2.631   2.558   2.610   2.614   2.669   2.459   2.190   2.243   2.296   2.310   2.288   2.486   2.318   2.523   2.487   2.388   2.532   2.435   2.336   2.403   2.506   2.475   2.372   2.347   2.312   2.536   2.656   2.654   2.740   2.520   2.469
    41.00    2.202   1.978   1.933   2.111   2.126   2.063   2.178   2.082   2.184   2.489   2.450   2.372   2.162   2.096   2.166   2.150   2.195   2.141   2.111   1.999   1.979   2.085   2.308   2.335   2.461   2.437   2.317   2.446   2.450   2.423   2.590   2.659   2.470   2.434   2.555   2.557   2.668   2.459   2.290   2.347   2.248   2.389   2.447   2.648   2.666   2.636   2.485   2.404   2.315   2.314   2.327   2.403   2.461   2.521   2.445   2.490   2.430   2.420   2.446   2.360   2.311   2.210   2.292   2.429   2.487   2.487   2.341   2.430   2.398   2.590   2.577   2.530   2.371
    36.00    2.246   2.213   2.069   2.180   2.072   2.082   2.244   2.328   2.375   2.470   2.507   2.443   2.284   2.216   2.163   2.146   2.196   2.080   2.145   2.128   2.216   2.288   2.277   2.397   2.593   2.481   2.354   2.520   2.439   2.601   2.598   2.475   2.295   2.310   2.542   2.486   2.542   2.413   2.235   2.184   2.306   2.420   2.535   2.509   2.569   2.653   2.499   2.362   2.266   2.271   2.476   2.418   2.427   2.558   2.590   2.463   2.420   2.329   2.174   2.191   2.277   2.275   2.301   2.388   2.499   2.487   2.336   2.450   2.321   2.314   2.485   2.355   2.136
    31.00    2.195   2.175   2.176   2.005   2.099   2.194   2.318   2.403   2.235   2.357   2.566   2.596   2.398   2.273   2.342   2.166   2.320   2.118   1.981   2.181   2.259   2.363   2.419   2.585   2.558   2.576   2.384   2.495   2.568   2.646   2.631   2.637   2.474   2.490   2.412   2.568   2.324   2.469   2.452   2.361   2.445   2.531   2.439   2.454   2.546   2.520   2.490   2.414   2.445   2.547   2.613   2.549   2.652   2.579   2.631   2.720   2.517   2.333   2.231   2.404   2.428   2.396   2.251   2.388   2.453   2.303   2.215   2.328   2.303   2.239   2.353   2.055   2.173
    26.00    2.445   2.231   2.049   1.997   2.162   2.277   2.288   2.305   2.343   2.315   2.469   2.550   2.508   2.301   2.194   2.304   2.315   2.141   2.091   2.178   2.283   2.227   2.382   2.417   2.694   2.725   2.620   2.481   2.631   2.668   2.746   2.799   2.595   2.495   2.528   2.535   2.488   2.369   2.462   2.487   2.427   2.296   2.297   2.419   2.461   2.329   2.520   2.386   2.383   2.332   2.464   2.723   2.609   2.758   2.846   2.705   2.576   2.384   2.347   2.354   2.434   2.382   2.322   2.422   2.270   2.399   2.326   2.268   2.236   2.123   2.158   2.118   2.106
    21.00    2.306   2.212   2.166   2.343   2.213   2.255   2.096   2.146   2.177   2.226   2.303   2.447   2.432   2.392   2.251   2.320   2.283   2.178   2.140   2.244   2.231   2.235   2.119   2.345   2.479   2.710   2.716   2.514   2.707   2.937   2.706   2.589   2.459   2.521   2.448   2.504   2.438   2.302   2.387   2.387   2.388   2.382   2.368   2.365   2.372   2.414   2.265   2.359   2.398   2.253   2.421   2.441   2.673   2.566   2.645   2.624   2.388   2.443   2.389   2.453   2.579   2.236   2.288   2.308   2.418   2.339   2.211   2.246   2.132   2.032   2.004   2.036   2.075
    16.00    2.201   2.288   2.114   2.232   2.238   2.152   2.065   2.172   2.287   2.259   2.188   2.318   2.316   2.310   2.351   2.334   2.211   2.167   2.243   2.194   2.227   2.216   2.169   2.259   2.328   2.484   2.574   2.505   2.502   2.637   2.612   2.564   2.319   2.575   2.420   2.290   2.311   2.347   2.233   2.334   2.272   2.362   2.299   2.315   2.128   2.109   2.112   2.248   2.321   2.345   2.381   2.539   2.500   2.477   2.634   2.605   2.358   2.521   2.475   2.283   2.525   2.324   2.209   2.260   2.340   2.255   2.395   2.144   2.082   1.916   2.025   1.949   1.981
    11.00    2.305   2.262   2.323   2.374   2.435   2.208   2.236   2.207   2.136   2.252   2.097   2.130   2.142   2.150   2.290   2.378   2.225   2.139   2.256   2.302   2.225   2.313   2.155   2.299   2.304   2.172   2.399   2.582   2.651   2.555   2.427   2.346   2.366   2.423   2.336   2.237   2.338   2.431   2.210   2.331   2.211   2.146   2.328   2.239   2.168   2.023   1.991   2.111   2.091   2.326   2.317   2.408   2.386   2.552   2.682   2.620   2.532   2.294   2.283   2.164   2.326   2.318   2.158   2.215   2.217   2.366   2.379   2.279   2.044   2.006   1.893   2.002   2.056
     6.00    2.368   2.371   2.494   2.408   2.453   2.163   2.288   2.332   2.193   2.003   2.041   2.042   2.084   2.209   2.010   2.186   2.193   2.275   2.254   2.159   2.156   2.253   2.267   2.174   2.229   2.261   2.474   2.539   2.530   2.425   2.349   2.350   2.374   2.316   2.406   2.394   2.420   2.395   2.307   2.327   2.231   1.987   2.068   2.152   2.068   2.035   2.130   2.180   2.308   2.346   2.457   2.314   2.426   2.385   2.496   2.509   2.302   2.319   2.176   2.140   2.147   2.038   2.140   2.191   2.232   2.248   2.422   2.465   2.306   2.045   2.109   2.200   2.214
     1.00    2.290   2.540   2.571   2.415   2.364   2.181   2.317   2.188   2.083   1.928   1.922   2.008   1.981   2.111   2.153   2.231   2.093   2.151   2.152   1.953   2.052   2.094   2.024   2.098   2.199   2.379   2.460   2.456   2.444   2.470   2.452   2.477   2.487   2.385   2.311   2.354   2.446   2.228   2.425   2.228   2.114   1.958   1.968   2.029   2.153   1.888   2.149   2.287   2.120   2.130   2.140   2.286   2.341   2.341   2.303   2.249   2.342   2.295   2.121   2.110   2.157   2.150   2.254   2.157   2.230   2.259   2.422   2.337   2.359   2.159   2.240   2.321   2.393

   Height   Standard deviation at grid points for the v component:
   301.00    2.087   2.038   2.165   2.092   2.073   2.073   2.077   2.130   2.145   2.091   2.080   1.958   1.980   1.873   1.900   1.839   1.930   1.807   1.788   1.893   1.890   1.827   1.920   2.032   1.940   2.003   1.942   1.906   1.946   1.921   1.971   1.897   1.962   1.982   1.861   1.899   1.977   1.963   1.985   2.102   2.153   2.305   2.283   2.293   2.160   2.337   2.190   2.061   2.045   1.904   1.864   1.775   1.835   1.702   1.695   1.753   1.798   1.791   1.836   1.900   1.917   1.813   1.806   1.781   1.783   1.800   1.809   1.762   1.681   1.715   1.640   1.755   1.816
   296.00    2.146   2.174   2.088   2.097   2.235   2.169   2.031   2.072   2.162   2.170   2.127   1.981   1.956   1.902   1.880   1.994   1.890   1.797   1.777   1.902   1.937   1.940   1.898   2.055   1.968   1.950   1.932   1.944   1.869   1.945   1.915   1.909   1.841   1.811   1.841   1.825   1.804   1.805   1.972   2.080   2.110   2.095   2.235   2.226   2.269   2.243   2.157   1.969   1.830   1.785   1.751   1.796   1.722   1.602   1.645   1.734   1.697   1.723   1.928   1.961   1.894   1.924   1.878   1.828   1.898   1.829   1.789   1.768   1.671   1.704   1.815   1.765   1.758
   291.00    2.031   2.089   2.017   2.099   2.163   2.153   2.042   2.066   2.105   2.241   2.182   2.002   1.923   1.832   1.859   1.778   1.853   1.821   1.819   1.936   1.910   1.976   1.900   2.044   1.996   1.935   1.924   1.860   1.925   1.926   1.835   1.847   1.818   1.780   1.843   1.874   1.741   1.737   1.820   1.955   1.963   2.003   2.117   2.099   2.226   2.135   1.960   1.920   1.834   1.804   1.798   1.689   1.645   1.686   1.628   1.685   1.701   1.768   1.825   1.988   1.954   1.817   1.835   2.009   1.944   1.841   1.818   1.729   1.687   1.715   1.747   1.676   1.726
   286.00    2.015   1.979   1.995   2.063   2.025   1.963   1.910   1.925   1.986   2.029   2.030   1.848   1.834   1.852   1.831   1.747   1.745   1.692   1.887   1.941   1.869   1.896   2.020   2.042   1.958   1.981   1.892   1.891   1.848   1.958   1.850   1.724   1.734   1.843   1.753   1.749   1.707   1.728   1.712   1.895   1.922   1.906   1.992   2.102   2.140   2.113   2.082   1.985   1.878   1.745   1.748   1.744   1.742   1.762   1.736   1.819   1.737   1.863   1.915   1.949   2.003   1.885   1.899   1.938   1.956   1.856   1.728   1.641   1.656   1.640   1.656   1.739   1.779
   281.00    2.047   1.980   1.952   1.984   1.930   2.040   1.971   2.044   2.023   1.964   1.852   1.856   1.856   1.871   1.877   1.804   1.799   1.809   1.864   1.841   1.827   1.948   1.968   1.966   1.909   1.836   1.738   1.795   1.896   1.990   2.028   1.942   1.715   1.711   1.711   1.618   1.660   1.648   1.747   1.833   1.999   1.947   2.000   2.084   2.061   2.106   2.075   2.004   1.899   1.816   1.797   1.759   1.840   1.831   1.850   1.761   1.888   1.858   1.917   1.954   1.949   1.950   1.925   1.880   1.932   1.805   1.631   1.732   1.766   1.833   1.748   1.783   1.800
   276.00    2.034   2.011   1.967   2.062   2.028   2.053   1.981   2.005   1.954   1.813   1.852   1.956   1.949   2.012   1.887   1.853   1.851   1.870   1.809   1.756   1.846   1.811   1.854   1.882   1.863   1.784   1.782   1.829   1.880   1.921   1.891   1.959   1.805   1.758   1.676   1.651   1.769   1.785   1.882   1.891   1.886   2.001   1.931   2.112   2.052   2.032   2.021   1.967   1.986   1.957   1.879   1.876   1.853   2.027   1.856   1.925   2.049   1.939   1.915   1.914   1.877   2.039   1.933   1.809   1.875   1.840   1.765   1.760   1.859   1.809   1.755   1.746   1.845
   271.00    1.907   1.974   2.025   1.925   1.900   1.981   1.887   1.945   1.880   1.808   1.901   1.826   1.810   1.986   1.946   1.928   1.831   1.755   1.800   1.827   1.835   1.832   1.915   1.813   1.869   1.851   1.826   1.799   1.764   1.819   1.841   1.855   1.898   1.720   1.777   1.784   1.830   1.865   1.833   1.911   1.784   1.814   2.020   2.052   2.000   2.070   1.992   1.929   1.921   1.936   1.815   1.895   1.968   1.976   1.931   2.038   2.074   2.035   2.005   1.999   2.073   1.884   1.926   1.827   1.921   1.946   1.938   2.057   1.883   1.984   1.823   1.849   1.870
   266.00    1.882   2.045   2.073   1.967   1.907   2.002   1.903   1.752   1.783   1.728   1.788   1.861   1.875   1.945   1.953   2.002   1.876   1.724   1.816   1.809   1.815   1.922   1.818   1.713   1.686   1.762   1.731   1.745   1.714   1.779   1.750   1.875   1.834   1.708   1.711   1.755   1.793   1.822   1.813   1.821   1.782   1.855   2.009   2.060   2.092   2.072   2.061   2.083   1.959   1.903   1.853   1.904   1.891   1.751   1.872   1.972   2.091   2.035   2.107   2.074   2.034   1.951   2.039   1.904   2.034   2.106   2.031   2.021   2.009   2.015   2.010   1.892   1.797
   261.00    1.959   1.979   2.063   1.999   1.894   1.871   1.858   1.777   1.778   1.732   1.856   1.821   1.806   1.943   1.884   1.879   1.924   1.960   1.831   1.754   1.836   1.834   1.792   1.733   1.575   1.664   1.770   1.739   1.699   1.651   1.699   1.695   1.740   1.662   1.755   1.742   1.866   1.918   1.855   1.866   1.912   2.038   2.159   2.136   2.013   2.038   2.076   2.092   2.022   2.002   1.939   1.996   1.903   1.732   1.865   1.887   2.087   2.001   2.025   2.140   2.020   2.007   1.888   1.915   1.962   1.966   2.048   2.015   2.039   1.958   1.923   1.843   1.922
   256.00    2.089   1.970   2.010   1.923   1.906   1.911   1.902   1.811   1.822   1.849   1.826   1.807   1.926   1.929   1.959   1.874   1.939   2.009   1.880   1.910   1.874   1.857   1.861   1.802   1.623   1.652   1.797   1.794   1.734   1.680   1.658   1.642   1.736   1.759   1.763   1.675   1.748   1.820   1.954   1.857   1.927   2.077   2.152   2.118   2.094   2.147   2.070   2.102   1.989   2.055   2.043   2.038   2.003   1.853   1.927   1.903   2.022   2.023   1.996   2.099   1.905   1.931   1.840   1.849   1.960   2.069   2.162   2.088   2.007   2.072   1.990   2.026   2.027
   251.00    2.064   1.985   2.003   2.036   1.864   1.866   1.917   1.933   1.926   1.784   1.767   1.747   1.862   1.891   1.992   2.011   1.927   1.929   1.875   1.900   1.855   1.842   1.833   1.778   1.588   1.699   1.789   1.787   1.774   1.621   1.639   1.646   1.738   1.775   1.714   1.681   1.733   1.824   1.908   1.954   1.981   2.038   2.110   2.188   2.144   2.218   2.189   2.165   2.080   2.130   2.036   2.185   2.104   1.957   1.947   1.879   2.041   2.013   1.888   2.028   1.873   1.870   1.796   1.860   1.976   1.983   2.055   1.987   1.990   1.967   1.909   2.000   1.990
   246.00    2.050   2.019   2.071   2.069   1.978   1.940   1.929   1.859   1.913   1.941   1.737   1.852   1.870   1.895   2.104   2.041   1.892   1.926   1.864   1.916   1.841   1.915   1.880   1.818   1.709   1.721   1.817   1.823   1.766   1.736   1.672   1.657   1.737   1.657   1.769   1.751   1.841   2.063   1.944   2.029   2.123   2.067   2.121   2.120   2.127   2.102   2.158   2.086   2.008   2.109   2.146   2.141   2.069   2.016   1.940   1.943   1.939   1.923   1.983   2.124   1.995   1.829   1.887   1.910   1.938   1.921   2.014   1.983   1.942   1.929   1.768   1.795   1.908
   241.00    1.922   2.086   2.110   2.111   2.065   2.101   1.965   1.851   1.906   1.795   1.849   1.805   1.807   1.923   2.034   2.099   1.896   1.959   1.915   1.950   1.926   1.920   1.929   1.878   1.772   1.758   1.761   1.785   1.720   1.720   1.747   1.637   1.790   1.884   1.848   1.707   1.744   1.929   1.921   2.016   2.056   2.030   2.107   2.137   2.148   2.047   1.995   2.071   2.112   2.159   2.153   2.020   1.879   1.934   1.901   1.999   1.926   1.950   2.063   1.968   1.977   1.959   1.984   1.935   1.899   1.902   1.859   1.881   1.887   1.924   1.831   1.810   1.759
   236.00    2.053   2.034   2.178   2.150   2.163   2.093   1.953   1.822   1.862   1.892   1.874   1.852   1.817   1.895   1.951   1.940   2.068   1.931   2.085   2.050   2.045   2.011   1.970   1.935   1.792   1.748   1.725   1.833   1.832   1.798   1.774   1.828   1.942   1.954   1.924   1.797   1.843   1.922   1.954   2.003   2.175   2.077   2.008   2.002   2.149   2.052   2.088   2.108   2.203   2.212   2.019   2.011   1.932   1.933   1.856   1.978   2.027   1.951   1.952   1.966   1.868   1.880   1.865   1.808   1.810   1.789   1.786   1.798   1.891   1.835   1.795   1.796   1.803
   231.00    2.017   2.132   2.205   2.164   2.121   2.097   1.911   1.816   1.867   1.938   1.905   1.759   1.825   1.842   1.913   1.925   1.987   1.983   2.008   2.023   1.943   1.932   1.831   1.880   1.811   1.758   1.752   1.818   1.967   1.911   1.923   1.884   1.911   1.897   1.846   1.858   1.870   2.008   1.981   1.972   2.127   2.148   2.062   2.180   2.116   2.202   2.024   2.192   2.095   2.188   1.991   1.980   1.926   2.038   1.999   2.028   2.024   1.977   1.979   2.018   1.891   1.736   1.829   1.808   1.842   1.797   1.777   1.768   1.788   1.757   1.777   1.763   1.843
   226.00    1.878   1.905   1.998   2.164   2.076   1.964   2.042   2.013   1.916   1.875   1.927   1.844   1.732   1.780   1.784   1.862   1.883   1.875   1.971   1.969   2.009   2.003   1.888   1.756   1.759   1.780   1.900   1.967   2.100   2.002   1.943   1.837   1.851   1.918   2.061   2.085   2.011   2.115   2.106   2.122   2.199   2.066   1.975   2.034   2.127   2.096   2.144   2.058   2.003   2.062   1.993   2.063   1.920   1.994   2.015   1.964   1.982   2.052   2.073   1.904   1.874   1.802   1.861   1.813   1.814   1.849   1.812   1.723   1.733   1.647   1.732   1.723   1.877
   221.00    1.869   1.809   1.895   2.064   1.983   1.950   2.102   2.034   1.947   1.949   1.922   1.880   1.847   1.789   1.703   1.771   1.755   1.826   1.888   1.806   1.920   1.880   1.906   1.896   1.836   1.765   1.829   1.892   1.943   2.044   2.102   1.921   1.976   2.105   2.097   2.131   2.159   2.087   2.031   2.079   1.923   2.003   1.963   2.110   2.153   2.177   2.230   2.045   2.038   2.035   1.968   1.947   1.898   1.895   1.821   1.964   2.024   2.114   2.184   2.144   1.921   1.921   1.754   1.800   1.960   1.870   1.754   1.763   1.773   1.744   1.746   1.764   1.810
   216.00    2.098   1.958   2.039   2.040   2.015   1.989   2.069   1.960   1.990   1.935   1.843   1.837   1.835   1.712   1.697   1.626   1.697   1.758   1.909   1.834   1.828   1.807   1.892   1.745   1.764   1.745   1.789   1.759   1.919   2.042   2.088   2.009   1.923   2.001   2.159   2.064   2.167   2.067   2.119   1.986   1.948   2.053   2.013   2.044   2.125   2.155   2.092   2.094   2.095   2.057   2.002   1.855   1.913   1.832   1.883   1.903   2.042   2.128   2.083   2.042   1.940   1.866   1.767   1.735   1.875   1.867   1.850   1.785   1.757   1.784   1.731   1.746   1.760
   211.00    2.116   2.151   1.959   1.968   1.987   1.931   1.927   1.944   2.036   1.960   1.841   1.830   1.807   1.738   1.697   1.685   1.682   1.847   1.864   1.883   1.891   1.878   1.776   1.735   1.776   1.808   1.938   1.932   1.948   2.042   2.122   2.112   2.094   2.019   2.111   2.070   2.140   2.267   2.160   2.059   1.980   2.050   2.005   1.984   1.958   2.014   1.975   1.963   2.033   1.974   2.091   2.036   2.008   1.904   1.839   1.881   1.865   1.969   2.098   1.904   1.792   1.798   1.813   1.713   1.759   1.833   1.851   1.816   1.802   1.853   1.780   1.751   1.791
   206.00    2.087   1.989   1.880   1.893   1.904   1.856   1.878   1.846   1.880   1.912   1.873   1.833   1.877   1.709   1.720   1.741   1.725   1.753   1.855   1.823   1.897   1.856   1.768   1.877   1.813   1.902   1.953   1.908   1.889   1.990   2.134   2.207   2.066   2.064   2.060   2.049   2.145   2.090   2.135   1.916   1.980   2.058   2.049   1.993   1.997   1.978   2.008   1.868   2.065   1.994   2.039   2.014   2.101   1.965   1.781   1.793   1.839   1.932   1.969   1.988   1.906   1.807   1.733   1.723   1.731   1.767   1.763   1.912   1.811   1.841   1.945   1.811   1.985
   201.00    1.927   1.928   1.830   1.838   1.809   1.929   1.904   1.913   1.899   1.970   1.917   1.888   1.784   1.727   1.672   1.745   1.714   1.764   1.833   1.756   1.796   1.815   1.841   1.872   1.825   1.923   1.923   1.778   1.735   1.842   2.058   1.999   2.023   2.021   2.144   2.120   2.141   2.116   2.069   1.893   1.834   1.901   1.951   2.040   2.104   2.017   1.925   1.952   2.041   2.055   2.103   1.995   1.917   1.816   1.816   1.790   1.861   1.949   1.887   1.970   1.862   1.901   1.797   1.701   1.774   1.747   1.840   1.893   1.863   1.967   1.818   1.906   1.825
   196.00    1.931   1.972   1.812   1.891   1.827   1.843   1.857   1.922   1.982   1.927   1.912   1.863   1.840   1.916   1.823   1.844   1.866   1.842   1.948   1.759   1.717   1.725   1.825   1.823   1.851   1.784   1.873   1.884   1.756   1.838   1.992   1.972   1.918   1.932   2.023   2.057   2.146   2.062   1.970   1.961   1.902   1.888   1.893   2.069   2.086   2.082   1.894   2.010   2.070   2.004   2.039   1.874   1.806   1.736   1.734   1.768   1.805   1.873   1.972   1.941   1.810   1.779   1.875   1.717   1.848   1.842   1.847   1.912   1.916   1.799   1.843   1.814   1.759
   191.00    1.846   1.980   1.975   1.958   1.903   1.871   1.808   1.886   1.951   1.972   2.075   2.077   1.957   1.884   1.811   1.822   1.845   1.780   1.833   1.857   1.797   1.827   1.832   1.821   1.848   1.911   1.864   1.821   1.805   1.803   1.843   1.730   1.827   1.913   1.984   2.050   2.122   2.036   1.990   1.963   2.058   2.050   1.995   1.967   2.003   1.900   1.940   1.951   2.010   1.978   1.867   1.863   1.799   1.722   1.740   1.818   1.750   1.906   1.926   1.880   1.902   1.853   1.832   1.833   1.912   1.939   1.915   1.832   1.818   1.899   1.856   1.782   1.817
   186.00    1.963   1.911   2.005   2.017   1.882   1.828   1.789   1.857   1.879   1.933   2.030   2.062   1.941   1.917   1.862   1.941   1.764   1.793   1.694   1.898   1.895   2.008   1.868   1.899   2.009   2.047   1.997   1.910   1.822   1.774   1.798   1.806   1.837   1.873   2.017   2.031   2.046   2.020   1.974   1.969   1.956   1.926   1.883   1.911   1.804   1.761   1.832   1.781   1.879   1.938   1.905   1.796   1.786   1.909   1.862   1.772   1.867   1.938   1.965   1.841   1.888   1.929   1.798   1.986   1.860   1.987   1.993   1.936   1.918   1.948   1.864   1.875   1.840
   181.00    1.970   2.010   2.072   1.941   1.863   1.770   1.729   1.821   1.856   1.874   1.964   1.948   1.912   1.830   1.959   1.947   1.810   1.735   1.792   1.775   1.804   1.898   1.976   1.982   2.023   1.906   1.991   1.906   1.815   1.744   1.743   1.754   1.807   1.889   2.019   2.007   1.903   1.945   1.940   1.888   1.859   1.878   1.963   1.897   1.834   1.861   1.809   1.834   1.855   1.841   1.676   1.740   1.832   1.829   1.917   1.867   1.939   1.917   1.925   1.861   1.913   1.818   1.907   1.985   1.966   1.934   1.987   1.879   1.872   1.968   2.028   1.860   1.825
   176.00    1.970   1.938   2.038   1.878   1.814   1.742   1.811   1.809   1.930   1.924   1.806   1.847   1.886   1.976   1.897   1.952   1.808   1.702   1.810   1.756   1.863   1.929   1.954   2.030   1.982   1.915   1.888   1.778   1.783   1.682   1.783   1.764   1.854   1.840   1.903   1.961   1.919   1.930   1.924   1.941   1.913   1.984   1.992   1.882   1.877   1.906   1.922   1.837   1.793   1.747   1.662   1.777   1.906   1.854   1.856   1.956   1.988   1.967   1.822   1.921   1.842   1.898   1.818   1.917   2.003   1.880   1.886   1.926   1.944   1.967   1.991   1.986   1.876
   171.00    1.895   1.946   1.881   1.896   1.809   1.796   1.778   1.907   1.871   1.900   1.804   1.840   1.912   1.968   1.919   1.913   1.771   1.691   1.762   1.798   1.768   1.846   1.950   1.940   1.855   1.878   1.764   1.784   1.852   1.861   1.899   1.880   1.792   1.767   1.898   1.919   1.857   1.992   1.865   1.936   1.785   1.888   1.826   1.838   1.838   1.827   1.930   1.884   1.836   1.796   1.782   1.854   1.965   2.006   1.961   1.920   2.064   2.005   1.860   2.005   2.022   1.918   1.956   1.848   1.978   1.906   1.846   1.832   1.860   1.829   1.964   2.025   1.911
   166.00    1.884   1.960   1.822   1.828   1.824   1.781   1.793   1.783   1.795   1.869   1.835   1.868   1.735   1.872   1.847   1.901   1.922   1.828   1.848   1.774   1.778   1.835   1.908   1.854   1.891   1.934   1.949   1.741   1.750   1.932   2.068   1.976   1.801   1.891   1.901   1.966   2.049   1.916   1.968   1.949   1.888   1.952   1.814   1.894   1.833   1.804   1.819   1.912   1.860   1.775   1.858   1.938   1.893   1.964   1.905   1.867   1.929   1.900   1.886   1.913   1.966   1.968   1.934   1.853   1.895   1.962   1.747   1.760   1.738   1.895   1.877   1.956   1.956
   161.00    1.835   1.815   1.834   1.821   1.867   1.756   1.747   1.677   1.631   1.705   1.746   1.729   1.745   1.774   1.930   1.876   1.978   1.994   1.955   1.871   1.908   1.941   1.770   1.954   1.901   1.996   1.856   1.886   1.865   1.946   2.038   2.012   1.972   1.917   1.967   1.930   1.989   1.907   1.859   1.866   1.885   1.906   1.853   1.880   1.884   1.802   1.981   1.944   1.952   1.927   1.852   1.914   1.992   1.933   1.956   1.926   1.874   1.862   1.842   1.838   1.804   1.809   1.805   1.824   1.782   1.792   1.797   1.871   1.856   1.865   1.927   1.925   2.028
   156.00    1.874   1.913   1.854   1.786   1.732   1.727   1.671   1.631   1.592   1.637   1.638   1.637   1.603   1.736   1.803   1.876   1.993   1.978   1.996   2.035   1.845   1.795   1.915   2.004   1.965   1.960   2.016   2.030   1.918   1.904   1.970   2.095   1.950   1.944   2.045   2.050   2.033   1.837   1.863   1.929   1.868   1.801   1.793   1.790   1.881   1.863   1.925   2.004   1.937   1.926   1.967   2.019   1.908   1.960   1.944   1.885   1.791   1.819   1.878   1.848   1.835   1.855   1.941   1.892   1.871   1.788   1.933   1.806   1.837   1.891   1.913   2.001   2.003
   151.00    1.932   1.860   1.847   1.895   1.716   1.734   1.670   1.676   1.624   1.699   1.672   1.770   1.644   1.624   1.642   1.688   1.848   1.869   1.953   1.996   1.840   1.827   1.845   1.919   1.908   1.934   1.967   1.996   1.957   1.927   1.996   2.046   2.036   1.912   1.991   1.954   2.059   2.002   1.893   1.828   1.886   1.756   1.826   1.865   1.825   1.938   1.971   1.991   1.981   1.988   2.000   1.964   1.844   1.884   1.840   1.878   1.910   1.756   1.674   1.929   1.918   1.902   1.995   1.867   1.815   1.788   1.921   1.894   1.772   1.877   1.958   1.952   1.918
   146.00    1.952   1.816   1.861   1.805   1.733   1.803   1.802   1.708   1.636   1.714   1.647   1.622   1.711   1.766   1.705   1.754   1.806   1.886   1.830   1.867   1.879   1.889   1.866   1.921   1.910   1.897   1.923   1.961   1.935   1.939   1.881   1.975   1.990   1.910   1.970   1.950   2.017   1.883   1.903   1.948   1.996   1.906   1.892   1.794   1.740   1.962   1.902   1.982   2.007   1.908   1.908   1.922   1.910   1.866   1.813   1.939   1.878   1.828   1.765   1.796   1.816   1.908   1.949   1.930   1.846   1.728   1.857   1.906   1.809   1.879   1.942   2.006   1.887
   141.00    1.862   1.817   2.008   1.911   1.887   1.861   1.820   1.700   1.800   1.754   1.742   1.803   1.597   1.693   1.712   1.695   1.785   1.773   1.926   1.856   1.900   1.827   1.933   1.944   1.830   1.895   2.020   2.095   1.951   1.866   1.882   2.059   1.962   2.053   1.952   1.971   1.950   1.990   1.953   2.001   1.926   1.887   2.006   1.849   1.804   1.868   1.873   1.917   1.920   2.012   2.049   2.015   2.009   1.968   1.898   2.017   1.927   1.937   1.838   1.819   1.887   1.966   1.976   1.905   1.955   1.888   1.853   1.864   1.886   1.890   2.027   1.993   1.859
   136.00    1.831   1.903   1.956   1.968   1.950   1.900   1.911   1.905   1.822   1.760   1.746   1.747   1.817   1.841   1.847   1.849   1.762   1.747   1.854   2.037   1.965   1.960   2.065   1.904   1.829   1.946   1.986   2.015   2.069   2.064   2.076   2.052   2.075   2.054   2.060   2.033   1.943   1.997   1.870   1.874   1.857   1.780   1.900   1.816   1.789   1.840   1.927   1.920   1.925   1.906   1.974   1.976   2.012   1.996   1.950   1.872   1.954   1.965   1.877   1.783   1.892   1.956   1.958   1.932   1.928   1.876   1.896   1.866   1.910   1.892   2.002   1.926   1.883
   131.00    1.745   1.831   1.833   1.974   1.846   1.892   1.847   1.907   1.923   1.706   1.778   1.752   1.806   1.826   1.896   1.896   1.831   1.793   1.820   1.946   1.926   2.133   1.992   1.957   1.744   1.894   1.978   2.063   1.956   1.959   2.125   2.070   1.935   1.997   1.999   2.043   1.932   1.867   1.867   1.859   1.874   1.848   1.723   1.847   1.747   1.838   1.837   1.863   1.914   2.000   1.943   1.880   1.981   1.937   1.908   1.916   1.937   1.952   1.975   1.949   1.991   1.984   1.884   1.826   1.867   1.769   1.877   1.840   1.991   1.969   2.030   1.887   1.817
   126.00    1.727   1.791   1.879   1.890   1.849   1.836   1.760   1.921   1.966   1.820   1.818   1.863   1.866   1.874   1.829   1.843   1.850   1.846   1.858   1.842   1.922   2.096   2.118   1.979   2.042   2.026   2.092   1.990   1.923   2.021   2.040   2.088   1.964   1.957   1.946   2.022   1.936   1.918   1.879   1.842   1.901   2.004   1.874   1.887   1.844   1.827   1.947   1.973   1.830   1.912   1.995   1.885   1.806   1.919   1.935   1.890   1.945   1.948   1.926   1.920   2.071   2.025   1.929   1.901   1.867   1.815   1.844   1.991   2.032   2.041   1.985   1.979   1.863
   121.00    1.749   1.742   1.778   1.776   1.871   1.842   1.839   2.029   2.119   2.007   1.973   1.843   1.949   1.888   1.840   1.827   1.826   1.888   1.819   1.708   1.851   2.014   2.100   2.008   1.996   2.169   2.118   1.970   1.942   1.920   1.912   1.961   1.948   1.863   1.877   1.965   1.937   1.998   1.869   1.920   1.899   1.951   1.882   1.963   1.845   1.884   1.975   2.073   2.069   2.037   2.005   1.965   1.837   1.908   2.003   1.971   1.886   1.928   1.961   1.955   1.997   2.009   1.885   1.922   1.907   1.937   2.034   2.030   2.112   2.098   1.954   1.897   1.911
   116.00    1.755   1.777   1.736   1.805   1.739   1.765   1.898   2.099   2.149   2.098   2.004   1.889   1.927   1.866   1.789   1.822   1.857   1.907   1.828   1.732   1.832   1.956   2.018   2.007   2.026   2.035   2.117   1.977   1.938   1.926   1.875   1.943   1.994   1.860   1.861   1.869   1.802   1.806   1.933   1.896   1.910   2.012   1.942   1.914   1.881   1.934   2.021   2.065   2.004   1.991   2.065   1.939   1.910   1.981   1.953   1.947   1.899   1.924   1.898   1.979   1.891   1.961   1.893   1.895   1.895   1.950   1.985   2.040   2.039   2.173   2.061   2.071   1.870
   111.00    1.765   1.734   1.715   1.750   1.831   1.770   1.902   2.029   2.064   2.042   1.971   1.909   1.785   1.813   1.827   1.862   1.892   1.945   1.849   1.814   1.844   2.010   1.942   1.922   1.960   2.035   2.039   1.993   1.972   1.895   1.884   1.961   1.816   1.846   1.906   1.784   1.824   1.876   1.916   1.840   1.794   1.944   1.939   1.972   2.030   1.897   1.956   1.988   1.993   1.996   2.071   1.993   1.891   1.805   1.877   1.835   1.843   1.858   1.885   2.023   1.961   1.929   1.875   1.905   1.918   1.897   1.997   2.076   2.055   2.074   2.002   1.846   1.823
   106.00    1.791   1.866   1.751   1.834   1.976   1.857   1.904   1.832   1.934   1.951   1.832   1.774   1.835   1.900   1.798   1.823   1.774   1.876   1.828   1.916   1.898   1.883   2.052   2.019   1.847   1.944   1.962   2.019   2.036   1.995   1.992   1.948   2.022   1.873   1.879   1.891   1.980   1.858   1.939   1.825   1.838   1.893   2.018   1.957   1.988   1.939   1.829   1.951   1.900   1.943   1.973   1.909   1.846   1.748   1.699   1.716   1.715   1.823   1.946   1.964   1.954   1.976   1.932   2.025   2.025   2.035   1.901   2.073   2.094   2.051   1.953   1.935   1.863
   101.00    1.884   1.807   1.742   1.798   1.913   1.840   1.865   1.756   1.786   1.865   1.784   1.822   1.832   1.901   1.826   1.896   1.887   1.986   1.963   1.959   1.936   1.933   1.929   2.044   2.025   2.017   1.921   2.059   2.007   2.061   1.985   1.938   1.986   1.885   1.931   1.949   1.936   2.031   2.030   1.885   2.003   2.014   2.060   2.031   2.072   1.970   1.949   2.036   1.886   1.947   1.874   1.909   1.876   1.737   1.726   1.734   1.755   1.901   1.888   1.920   1.971   2.052   1.993   1.986   2.055   1.975   1.951   2.038   2.122   2.140   2.005   1.961   1.994
    96.00    1.856   1.682   1.716   1.769   1.884   1.928   1.810   1.754   1.739   1.727   1.840   1.866   1.963   1.911   1.972   2.033   1.921   2.029   2.019   2.064   1.935   1.889   1.821   1.922   1.965   1.938   1.913   1.960   1.906   1.926   1.855   1.754   1.784   1.866   1.938   1.972   2.052   2.018   1.966   1.935   1.951   1.984   2.095   2.042   2.141   1.958   1.893   1.971   1.983   1.974   1.793   1.850   1.897   1.839   1.739   1.849   1.855   1.890   1.845   1.968   1.993   2.094   2.021   1.930   1.942   1.917   1.938   2.000   2.148   2.212   2.160   2.047   2.033
    91.00    1.711   1.609   1.657   1.717   1.819   1.804   1.831   1.778   1.678   1.679   1.730   1.732   1.811   1.852   1.816   1.984   2.146   2.013   2.014   1.998   1.962   1.883   1.863   1.930   1.969   2.002   1.978   1.992   2.008   2.018   1.891   1.861   1.850   1.896   1.951   2.045   1.873   1.901   1.885   1.935   1.996   2.089   2.129   2.057   2.122   1.919   1.828   1.915   1.904   1.986   1.855   1.778   1.855   1.725   1.767   1.940   1.971   1.953   2.002   2.016   2.034   2.067   1.967   1.949   1.826   1.841   1.871   2.064   2.147   2.085   2.052   2.204   1.931
    86.00    1.686   1.693   1.706   1.735   1.784   1.799   1.795   1.593   1.601   1.717   1.582   1.763   1.838   1.807   1.938   2.026   2.128   2.102   2.082   1.958   1.984   2.024   2.058   2.131   2.060   2.028   2.129   2.127   2.129   2.147   1.985   1.936   2.005   1.942   2.069   2.067   1.990   1.910   1.855   1.930   1.984   1.937   1.975   1.938   1.972   1.893   1.800   1.775   1.910   1.963   1.904   1.918   1.821   1.793   1.836   1.912   2.028   1.920   1.964   2.083   1.957   2.082   1.992   1.980   1.932   1.845   1.909   2.042   2.070   2.082   2.057   2.191   2.066
    81.00    1.731   1.734   1.734   1.705   1.753   1.725   1.841   1.762   1.758   1.737   1.830   1.810   1.778   1.859   1.976   1.959   2.129   2.111   2.071   1.957   2.116   2.172   2.067   2.170   2.192   2.260   2.132   2.124   2.035   2.008   1.926   1.965   2.048   2.039   1.978   1.979   1.952   1.953   1.875   1.881   1.945   1.864   1.815   1.828   1.792   1.750   1.718   1.817   1.880   1.840   1.911   1.873   1.782   1.737   1.833   1.915   1.941   1.856   2.000   2.036   2.064   2.023   1.979   1.944   2.020   1.895   1.956   2.055   1.964   2.028   2.038   2.075   2.153
    76.00    1.671   1.695   1.663   1.769   1.893   1.788   1.967   1.789   1.739   1.886   1.798   1.835   1.832   1.963   1.996   2.056   2.085   2.031   2.004   2.146   2.216   2.251   2.263   2.270   2.257   2.104   2.197   2.020   1.964   1.933   2.013   2.018   2.056   2.020   1.976   1.888   1.953   1.917   1.900   1.822   1.787   1.874   1.822   1.776   1.816   1.762   1.713   1.689   1.673   1.703   1.728   1.867   1.841   1.749   1.790   1.841   1.933   1.885   2.019   2.049   2.131   1.930   1.897   1.858   1.886   1.866   1.936   2.003   1.988   1.944   1.957   1.999   1.931
    71.00    1.766   1.726   1.816   1.933   1.964   1.947   1.890   1.866   1.822   1.957   1.949   1.891   1.916   1.927   2.055   2.147   2.213   2.094   2.156   2.144   2.220   2.277   2.224   2.249   2.180   2.060   2.042   1.913   1.942   1.941   2.014   2.100   2.071   1.991   2.077   1.988   1.910   1.923   1.832   1.748   1.806   1.872   1.788   1.698   1.738   1.794   1.662   1.642   1.586   1.730   1.779   1.857   1.810   1.739   1.793   1.916   1.949   2.024   2.120   1.991   2.029   2.071   2.023   1.970   1.928   1.880   1.981   1.945   1.912   1.987   1.999   1.987   1.923
    66.00    1.846   1.813   1.848   1.814   1.895   1.841   1.822   1.854   1.828   1.972   2.047   2.013   1.945   1.989   2.052   2.176   2.233   2.190   2.221   2.304   2.212   2.217   2.237   2.230   2.324   2.069   2.084   2.139   1.949   2.039   2.090   2.090   1.964   1.957   2.017   1.876   1.852   2.003   1.886   1.850   1.706   1.739   1.730   1.676   1.659   1.664   1.660   1.677   1.677   1.694   1.757   1.746   1.776   1.726   1.799   1.899   1.961   2.059   2.120   2.099   2.086   2.196   1.946   1.972   1.927   1.925   1.991   1.992   1.865   1.989   1.965   1.908   1.888
    61.00    2.064   1.984   1.960   1.993   1.842   1.872   1.813   1.827   1.894   1.898   1.979   2.127   2.167   2.077   2.047   2.114   2.224   2.216   2.217   2.118   2.147   2.230   2.376   2.179   2.227   2.207   2.029   2.092   2.013   2.080   2.113   2.114   2.032   2.069   2.080   1.801   1.711   1.740   1.880   1.818   1.812   1.876   1.712   1.676   1.692   1.644   1.667   1.763   1.706   1.696   1.765   1.764   1.773   1.748   1.770   1.915   1.986   2.012   2.019   2.157   2.076   2.066   2.001   1.941   1.855   1.886   1.899   1.904   1.970   1.968   1.964   2.035   1.948
    56.00    2.058   1.948   1.878   1.984   1.929   2.021   1.911   1.941   1.945   1.962   1.991   1.984   2.133   2.197   1.971   1.998   2.080   2.222   2.244   2.138   2.284   2.253   2.236   2.209   2.239   2.232   2.188   2.116   2.169   2.085   2.034   2.045   1.983   2.014   2.024   1.811   1.769   1.708   1.732   1.647   1.733   1.859   1.771   1.654   1.653   1.798   1.765   1.733   1.720   1.723   1.763   1.817   1.804   1.853   1.875   2.004   2.000   1.991   2.000   1.940   2.029   1.929   1.964   1.912   1.888   1.874   1.925   1.893   1.939   1.784   1.882   2.039   2.015
    51.00    2.176   2.053   1.921   1.971   1.903   1.877   1.901   1.927   1.895   1.859   1.912   1.834   1.940   1.938   1.915   1.996   2.032   2.174   2.252   2.218   2.153   2.111   2.146   2.193   2.264   2.238   2.170   2.230   2.155   2.111   1.972   1.952   1.975   2.039   1.954   1.844   1.717   1.645   1.662   1.729   1.648   1.701   1.664   1.679   1.769   1.727   1.763   1.732   1.697   1.762   1.722   1.753   1.870   1.834   1.848   1.970   1.993   1.995   1.965   1.980   2.009   1.977   1.969   1.822   1.951   2.014   1.984   1.942   2.028   1.923   1.948   1.967   1.879
[...]
   161.00    1.133   1.120   1.143   1.193   1.199   1.123   1.127   1.114   1.148   1.145   1.189   1.145   1.141   1.143   1.145   1.183   1.159   1.115   1.106   1.164   1.179   1.198   1.219   1.195   1.137   1.139   1.138   1.154   1.185   1.179   1.187   1.193   1.163   1.098   1.108   1.099   1.101   1.105   1.077   1.107   1.107   1.113   1.124   1.138   1.169   1.157   1.147   1.190   1.188   1.165   1.164   1.131   1.116   1.157   1.099   1.081   1.044   1.084   1.096   1.148   1.102   1.171   1.172   1.178   1.176   1.168   1.163   1.149   1.189   1.151   1.158   1.099   1.155
   156.00    1.155   1.120   1.172   1.184   1.218   1.169   1.122   1.117   1.125   1.176   1.159   1.185   1.136   1.148   1.130   1.145   1.158   1.105   1.144   1.114   1.184   1.192   1.188   1.193   1.172   1.171   1.172   1.177   1.195   1.225   1.167   1.181   1.140   1.117   1.134   1.109   1.135   1.111   1.096   1.124   1.122   1.107   1.137   1.128   1.116   1.118   1.139   1.126   1.164   1.134   1.177   1.137   1.120   1.104   1.096   1.100   1.107   1.077   1.120   1.120   1.123   1.158   1.148   1.191   1.181   1.152   1.125   1.142   1.180   1.151   1.193   1.168   1.141
   151.00    1.157   1.134   1.164   1.157   1.194   1.197   1.142   1.156   1.110   1.165   1.162   1.140   1.149   1.099   1.117   1.099   1.129   1.134   1.147   1.134   1.156   1.194   1.190   1.193   1.159   1.173   1.174   1.152   1.145   1.160   1.170   1.177   1.171   1.132   1.136   1.096   1.090   1.092   1.101   1.117   1.112   1.103   1.096   1.086   1.138   1.102   1.092   1.105   1.139   1.170   1.181   1.117   1.075   1.086   1.114   1.072   1.116   1.131   1.155   1.165   1.133   1.168   1.180   1.140   1.161   1.149   1.139   1.163   1.179   1.144   1.204   1.198   1.170
   146.00    1.122   1.175   1.177   1.229   1.214   1.211   1.213   1.172   1.148   1.151   1.143   1.112   1.111   1.080   1.087   1.118   1.148   1.164   1.180   1.209   1.175   1.157   1.202   1.151   1.191   1.152   1.168   1.164   1.192   1.175   1.207   1.169   1.131   1.115   1.130   1.088   1.119   1.122   1.103   1.085   1.093   1.101   1.078   1.101   1.115   1.062   1.061   1.102   1.153   1.183   1.174   1.115   1.090   1.116   1.103   1.091   1.122   1.167   1.160   1.167   1.186   1.172   1.151   1.155   1.131   1.141   1.116   1.130   1.156   1.134   1.155   1.152   1.209
   141.00    1.126   1.165   1.191   1.168   1.199   1.166   1.149   1.170   1.140   1.143   1.109   1.138   1.115   1.091   1.118   1.133   1.148   1.156   1.198   1.201   1.169   1.165   1.181   1.201   1.161   1.169   1.159   1.155   1.175   1.220   1.181   1.142   1.147   1.116   1.135   1.142   1.145   1.126   1.120   1.120   1.071   1.109   1.110   1.102   1.112   1.086   1.094   1.088   1.157   1.137   1.148   1.141   1.119   1.142   1.171   1.148   1.161   1.182   1.160   1.143   1.193   1.203   1.194   1.189   1.140   1.071   1.098   1.120   1.136   1.121   1.112   1.128   1.145
   136.00    1.181   1.181   1.137   1.122   1.137   1.128   1.122   1.146   1.146   1.137   1.133   1.151   1.116   1.124   1.120   1.137   1.140   1.152   1.191   1.131   1.153   1.169   1.203   1.217   1.151   1.128   1.140   1.123   1.147   1.182   1.172   1.183   1.086   1.102   1.137   1.165   1.128   1.113   1.125   1.088   1.090   1.086   1.113   1.097   1.086   1.105   1.112   1.094   1.083   1.111   1.106   1.141   1.138   1.176   1.199   1.158   1.144   1.194   1.165   1.218   1.193   1.241   1.255   1.211   1.148   1.104   1.081   1.085   1.125   1.096   1.095   1.118   1.133
   131.00    1.137   1.136   1.134   1.135   1.112   1.130   1.148   1.134   1.161   1.150   1.137   1.161   1.135   1.147   1.128   1.109   1.128   1.165   1.139   1.146   1.132   1.187   1.232   1.227   1.207   1.156   1.133   1.139   1.168   1.197   1.202   1.138   1.138   1.118   1.141   1.118   1.182   1.145   1.139   1.102   1.082   1.096   1.126   1.121   1.102   1.113   1.117   1.110   1.114   1.063   1.111   1.131   1.111   1.139   1.159   1.168   1.160   1.145   1.175   1.182   1.154   1.184   1.168   1.152   1.112   1.076   1.072   1.071   1.103   1.115   1.130   1.103   1.090
   126.00    1.109   1.120   1.107   1.096   1.127   1.109   1.139   1.174   1.178   1.197   1.166   1.154   1.098   1.127   1.151   1.138   1.144   1.148   1.207   1.168   1.187   1.228   1.225   1.226   1.227   1.183   1.167   1.131   1.148   1.188   1.174   1.153   1.154   1.172   1.158   1.134   1.162   1.204   1.193   1.123   1.107   1.123   1.170   1.169   1.153   1.157   1.126   1.119   1.127   1.073   1.098   1.125   1.103   1.139   1.209   1.194   1.146   1.123   1.138   1.140   1.125   1.143   1.116   1.100   1.083   1.079   1.075   1.055   1.104   1.121   1.102   1.125   1.073
   121.00    1.123   1.154   1.131   1.128   1.136   1.159   1.181   1.178   1.159   1.198   1.160   1.149   1.139   1.113   1.155   1.155   1.139   1.172   1.229   1.191   1.153   1.176   1.257   1.249   1.218   1.184   1.172   1.172   1.153   1.179   1.157   1.117   1.136   1.159   1.151   1.160   1.132   1.153   1.170   1.165   1.113   1.121   1.152   1.162   1.177   1.132   1.127   1.130   1.112   1.131   1.098   1.119   1.132   1.160   1.164   1.135   1.171   1.169   1.153   1.148   1.152   1.197   1.112   1.115   1.118   1.085   1.066   1.101   1.138   1.097   1.083   1.099   1.115
   116.00    1.140   1.171   1.142   1.158   1.144   1.116   1.145   1.141   1.117   1.172   1.114   1.132   1.153   1.112   1.144   1.135   1.144   1.146   1.163   1.175   1.191   1.185   1.209   1.202   1.209   1.213   1.165   1.183   1.186   1.139   1.120   1.158   1.133   1.147   1.154   1.193   1.151   1.144   1.138   1.116   1.126   1.084   1.111   1.136   1.130   1.125   1.132   1.080   1.074   1.094   1.100   1.106   1.158   1.137   1.137   1.130   1.126   1.172   1.152   1.178   1.134   1.185   1.154   1.127   1.136   1.133   1.096   1.112   1.113   1.111   1.077   1.095   1.092
   111.00    1.143   1.156   1.164   1.165   1.131   1.107   1.134   1.134   1.127   1.135   1.123   1.112   1.108   1.159   1.175   1.160   1.163   1.144   1.151   1.144   1.161   1.171   1.165   1.177   1.183   1.221   1.198   1.200   1.210   1.114   1.136   1.129   1.156   1.134   1.170   1.150   1.138   1.140   1.099   1.119   1.138   1.144   1.164   1.166   1.168   1.108   1.112   1.083   1.077   1.082   1.108   1.125   1.129   1.090   1.132   1.091   1.091   1.109   1.152   1.154   1.139   1.184   1.142   1.142   1.127   1.097   1.106   1.097   1.124   1.130   1.044   1.056   1.114
   106.00    1.147   1.165   1.181   1.162   1.130   1.120   1.137   1.122   1.110   1.132   1.127   1.070   1.102   1.157   1.177   1.182   1.137   1.132   1.146   1.153   1.150   1.154   1.182   1.192   1.146   1.168   1.224   1.208   1.195   1.170   1.120   1.119   1.119   1.122   1.143   1.153   1.166   1.086   1.133   1.108   1.103   1.137   1.166   1.136   1.131   1.137   1.086   1.111   1.097   1.072   1.126   1.129   1.148   1.133   1.091   1.141   1.078   1.110   1.170   1.182   1.180   1.188   1.125   1.113   1.113   1.150   1.152   1.161   1.130   1.101   1.051   1.091   1.109
   101.00    1.165   1.152   1.161   1.126   1.126   1.166   1.111   1.129   1.069   1.131   1.104   1.114   1.150   1.155   1.166   1.141   1.088   1.106   1.155   1.153   1.184   1.139   1.137   1.172   1.161   1.168   1.170   1.213   1.169   1.145   1.138   1.122   1.154   1.124   1.095   1.095   1.101   1.077   1.130   1.129   1.090   1.106   1.110   1.134   1.092   1.110   1.122   1.072   1.124   1.140   1.087   1.106   1.108   1.114   1.103   1.143   1.153   1.121   1.183   1.152   1.151   1.150   1.116   1.119   1.153   1.197   1.153   1.126   1.142   1.097   1.097   1.104   1.113
    96.00    1.161   1.186   1.184   1.164   1.155   1.176   1.138   1.138   1.105   1.148   1.098   1.141   1.129   1.110   1.154   1.146   1.119   1.102   1.184   1.182   1.198   1.116   1.112   1.167   1.193   1.191   1.150   1.202   1.217   1.197   1.170   1.098   1.132   1.125   1.083   1.083   1.065   1.074   1.119   1.099   1.097   1.126   1.130   1.135   1.153   1.139   1.069   1.071   1.115   1.116   1.120   1.109   1.135   1.142   1.141   1.145   1.168   1.126   1.122   1.142   1.109   1.099   1.087   1.066   1.096   1.086   1.150   1.154   1.140   1.143   1.131   1.081   1.068
    91.00    1.163   1.158   1.180   1.203   1.156   1.136   1.149   1.149   1.143   1.143   1.146   1.143   1.158   1.130   1.142   1.132   1.120   1.177   1.164   1.194   1.149   1.149   1.116   1.167   1.190   1.214   1.228   1.215   1.209   1.191   1.170   1.140   1.159   1.099   1.091   1.099   1.096   1.092   1.107   1.156   1.111   1.125   1.127   1.123   1.144   1.148   1.087   1.106   1.093   1.161   1.114   1.135   1.159   1.139   1.132   1.111   1.150   1.126   1.129   1.110   1.128   1.080   1.101   1.101   1.090   1.115   1.106   1.111   1.123   1.141   1.153   1.100   1.090
    86.00    1.159   1.173   1.143   1.183   1.169   1.152   1.143   1.126   1.156   1.184   1.132   1.097   1.131   1.157   1.161   1.168   1.150   1.156   1.160   1.150   1.130   1.115   1.156   1.156   1.167   1.172   1.238   1.210   1.179   1.183   1.169   1.157   1.142   1.113   1.083   1.105   1.080   1.093   1.101   1.144   1.118   1.115   1.100   1.106   1.150   1.157   1.127   1.109   1.115   1.164   1.170   1.185   1.171   1.153   1.160   1.119   1.112   1.105   1.075   1.096   1.109   1.128   1.166   1.131   1.119   1.120   1.093   1.056   1.100   1.128   1.147   1.071   1.128
    81.00    1.165   1.159   1.195   1.169   1.169   1.144   1.140   1.121   1.168   1.164   1.159   1.145   1.179   1.186   1.185   1.144   1.163   1.181   1.137   1.153   1.133   1.143   1.173   1.150   1.185   1.241   1.237   1.213   1.197   1.177   1.207   1.230   1.153   1.161   1.140   1.120   1.100   1.048   1.067   1.111   1.104   1.141   1.082   1.148   1.152   1.153   1.090   1.133   1.112   1.123   1.153   1.200   1.188   1.166   1.164   1.135   1.141   1.119   1.083   1.115   1.129   1.133   1.159   1.157   1.134   1.115   1.144   1.081   1.101   1.147   1.154   1.114   1.141
    76.00    1.193   1.189   1.189   1.174   1.146   1.166   1.167   1.123   1.124   1.164   1.173   1.184   1.163   1.193   1.164   1.159   1.191   1.218   1.199   1.169   1.182   1.162   1.156   1.179   1.182   1.167   1.156   1.234   1.212   1.180   1.185   1.200   1.195   1.160   1.142   1.107   1.094   1.084   1.120   1.101   1.105   1.188   1.137   1.139   1.144   1.160   1.162   1.127   1.108   1.128   1.157   1.129   1.116   1.121   1.164   1.132   1.169   1.111   1.151   1.141   1.117   1.167   1.168   1.188   1.131   1.148   1.117   1.105   1.109   1.156   1.136   1.108   1.105
    71.00    1.190   1.204   1.187   1.129   1.182   1.158   1.170   1.144   1.113   1.123   1.137   1.152   1.150   1.166   1.147   1.177   1.183   1.217   1.195   1.210   1.114   1.118   1.144   1.173   1.162   1.192   1.199   1.256   1.224   1.227   1.209   1.204   1.173   1.172   1.128   1.090   1.105   1.120   1.117   1.126   1.141   1.174   1.185   1.165   1.175   1.122   1.100   1.137   1.103   1.156   1.141   1.154   1.142   1.152   1.159   1.169   1.177   1.170   1.206   1.144   1.172   1.191   1.193   1.176   1.142   1.207   1.144   1.144   1.114   1.146   1.174   1.135   1.115
    66.00    1.188   1.199   1.182   1.162   1.195   1.158   1.131   1.097   1.141   1.148   1.133   1.121   1.141   1.180   1.138   1.152   1.147   1.170   1.143   1.124   1.108   1.102   1.137   1.133   1.145   1.150   1.196   1.203   1.244   1.272   1.242   1.204   1.199   1.192   1.131   1.117   1.117   1.088   1.132   1.142   1.116   1.160   1.140   1.138   1.123   1.110   1.117   1.116   1.124   1.149   1.196   1.183   1.120   1.155   1.133   1.114   1.122   1.148   1.171   1.166   1.168   1.188   1.179   1.176   1.149   1.149   1.146   1.115   1.091   1.107   1.110   1.136   1.125
    61.00    1.154   1.188   1.168   1.180   1.221   1.195   1.165   1.187   1.140   1.119   1.109   1.109   1.141   1.133   1.141   1.117   1.179   1.176   1.142   1.092   1.122   1.125   1.118   1.122   1.068   1.152   1.204   1.153   1.241   1.258   1.214   1.217   1.166   1.176   1.178   1.154   1.119   1.112   1.097   1.115   1.130   1.155   1.110   1.136   1.112   1.107   1.129   1.136   1.107   1.131   1.125   1.111   1.133   1.091   1.125   1.116   1.152   1.173   1.144   1.179   1.199   1.178   1.152   1.139   1.124   1.121   1.146   1.100   1.090   1.134   1.145   1.136   1.161
    56.00    1.120   1.151   1.134   1.158   1.173   1.207   1.188   1.174   1.183   1.159   1.119   1.159   1.127   1.119   1.149   1.143   1.174   1.166   1.142   1.110   1.096   1.099   1.148   1.090   1.089   1.134   1.139   1.142   1.178   1.248   1.209   1.226   1.194   1.235   1.182   1.191   1.109   1.099   1.093   1.096   1.084   1.130   1.105   1.172   1.139   1.143   1.137   1.120   1.120   1.106   1.107   1.103   1.080   1.106   1.137   1.106   1.127   1.129   1.164   1.155   1.165   1.219   1.174   1.172   1.147   1.181   1.141   1.112   1.133   1.132   1.119   1.136   1.144
    51.00    1.140   1.146   1.142   1.155   1.129   1.169   1.153   1.172   1.146   1.117   1.081   1.108   1.176   1.115   1.103   1.062   1.087   1.121   1.128   1.116   1.065   1.109   1.128   1.154   1.159   1.102   1.151   1.173   1.211   1.206   1.251   1.232   1.198   1.199   1.195   1.174   1.145   1.114   1.088   1.090   1.095   1.115   1.120   1.142   1.122   1.093   1.131   1.120   1.131   1.170   1.125   1.098   1.114   1.110   1.129   1.132   1.087   1.111   1.170   1.213   1.255   1.206   1.201   1.164   1.137   1.146   1.092   1.095   1.147   1.153   1.150   1.178   1.163
    46.00    1.113   1.151   1.150   1.159   1.138   1.157   1.152   1.101   1.087   1.098   1.113   1.115   1.134   1.109   1.125   1.135   1.136   1.128   1.130   1.127   1.110   1.089   1.114   1.130   1.119   1.150   1.141   1.197   1.223   1.195   1.235   1.264   1.231   1.201   1.170   1.163   1.111   1.117   1.092   1.076   1.078   1.124   1.128   1.133   1.118   1.074   1.073   1.113   1.139   1.131   1.156   1.124   1.156   1.142   1.171   1.161   1.146   1.152   1.200   1.237   1.258   1.235   1.248   1.194   1.174   1.188   1.167   1.154   1.169   1.126   1.084   1.143   1.155
    41.00    1.174   1.118   1.147   1.121   1.141   1.153   1.136   1.124   1.161   1.115   1.137   1.141   1.160   1.097   1.116   1.107   1.106   1.115   1.141   1.122   1.105   1.112   1.131   1.128   1.126   1.128   1.153   1.200   1.254   1.171   1.184   1.205   1.201   1.201   1.150   1.142   1.134   1.103   1.115   1.085   1.125   1.130   1.172   1.189   1.131   1.078   1.095   1.109   1.157   1.171   1.146   1.128   1.119   1.142   1.172   1.203   1.162   1.203   1.221   1.245   1.274   1.249   1.212   1.242   1.235   1.197   1.189   1.193   1.170   1.135   1.143   1.152   1.204
    36.00    1.110   1.154   1.145   1.165   1.142   1.120   1.135   1.174   1.179   1.136   1.171   1.125   1.150   1.125   1.111   1.108   1.102   1.141   1.201   1.168   1.152   1.102   1.125   1.147   1.120   1.106   1.127   1.207   1.176   1.221   1.172   1.168   1.193   1.142   1.146   1.135   1.093   1.079   1.072   1.120   1.136   1.127   1.156   1.154   1.095   1.094   1.121   1.119   1.149   1.159   1.114   1.150   1.152   1.159   1.202   1.192   1.182   1.195   1.181   1.194   1.247   1.218   1.235   1.251   1.225   1.199   1.184   1.160   1.151   1.162   1.176   1.209   1.185
    31.00    1.137   1.153   1.161   1.173   1.132   1.154   1.175   1.174   1.175   1.147   1.111   1.118   1.110   1.168   1.127   1.103   1.116   1.085   1.122   1.131   1.151   1.101   1.115   1.153   1.126   1.123   1.140   1.135   1.150   1.176   1.174   1.144   1.172   1.137   1.127   1.114   1.091   1.112   1.116   1.138   1.169   1.151   1.157   1.152   1.178   1.108   1.157   1.173   1.131   1.149   1.172   1.116   1.143   1.189   1.176   1.166   1.204   1.222   1.188   1.246   1.283   1.276   1.230   1.249   1.211   1.228   1.191   1.193   1.146   1.102   1.170   1.213   1.128
    26.00    1.137   1.122   1.108   1.107   1.118   1.151   1.160   1.126   1.138   1.100   1.080   1.098   1.101   1.124   1.141   1.110   1.123   1.099   1.136   1.129   1.142   1.100   1.121   1.117   1.133   1.120   1.140   1.152   1.148   1.166   1.143   1.189   1.181   1.173   1.144   1.131   1.115   1.149   1.162   1.176   1.202   1.104   1.096   1.140   1.135   1.160   1.161   1.130   1.176   1.149   1.160   1.133   1.141   1.183   1.199   1.184   1.213   1.191   1.211   1.217   1.214   1.248   1.253   1.240   1.178   1.246   1.208   1.192   1.191   1.177   1.229   1.215   1.175
    21.00    1.155   1.120   1.131   1.115   1.088   1.107   1.150   1.144   1.118   1.089   1.093   1.077   1.086   1.107   1.115   1.107   1.115   1.141   1.135   1.138   1.150   1.116   1.147   1.134   1.118   1.130   1.146   1.112   1.152   1.123   1.187   1.188   1.141   1.107   1.146   1.119   1.117   1.159   1.124   1.179   1.182   1.161   1.138   1.121   1.150   1.143   1.197   1.170   1.167   1.146   1.131   1.136   1.155   1.221   1.236   1.187   1.244   1.171   1.225   1.217   1.202   1.249   1.251   1.191   1.183   1.163   1.164   1.168   1.177   1.180   1.150   1.194   1.159
    16.00    1.138   1.132   1.122   1.089   1.074   1.074   1.073   1.126   1.111   1.076   1.108   1.078   1.074   1.085   1.089   1.090   1.128   1.120   1.132   1.150   1.144   1.114   1.125   1.167   1.122   1.144   1.137   1.081   1.121   1.139   1.156   1.155   1.177   1.128   1.157   1.154   1.170   1.162   1.197   1.171   1.142   1.150   1.152   1.142   1.151   1.177   1.187   1.151   1.156   1.172   1.164   1.126   1.136   1.191   1.211   1.197   1.216   1.203   1.187   1.157   1.198   1.227   1.201   1.178   1.195   1.223   1.198   1.205   1.182   1.205   1.147   1.162   1.211
    11.00    1.196   1.133   1.139   1.120   1.120   1.104   1.080   1.156   1.159   1.078   1.069   1.103   1.123   1.114   1.125   1.092   1.139   1.136   1.116   1.181   1.199   1.149   1.138   1.160   1.121   1.151   1.155   1.113   1.119   1.140   1.089   1.065   1.109   1.111   1.163   1.110   1.118   1.130   1.140   1.182   1.158   1.120   1.104   1.157   1.183   1.197   1.209   1.213   1.161   1.189   1.158   1.174   1.160   1.161   1.173   1.177   1.176   1.116   1.115   1.104   1.137   1.156   1.188   1.199   1.233   1.267   1.224   1.211   1.193   1.242   1.220   1.230   1.186
     6.00    1.131   1.144   1.089   1.127   1.124   1.122   1.089   1.152   1.149   1.099   1.072   1.083   1.097   1.101   1.125   1.097   1.150   1.135   1.111   1.093   1.114   1.144   1.162   1.178   1.166   1.128   1.141   1.130   1.137   1.143   1.098   1.129   1.159   1.148   1.120   1.098   1.098   1.089   1.140   1.161   1.118   1.114   1.067   1.088   1.144   1.149   1.157   1.137   1.139   1.151   1.147   1.127   1.153   1.107   1.147   1.191   1.162   1.129   1.122   1.109   1.131   1.156   1.151   1.150   1.176   1.245   1.241   1.222   1.185   1.250   1.252   1.215   1.186
     1.00    1.144   1.118   1.162   1.136   1.133   1.087   1.083   1.114   1.163   1.113   1.092   1.091   1.088   1.074   1.122   1.103   1.090   1.115   1.103   1.098   1.131   1.157   1.209   1.186   1.218   1.162   1.137   1.139   1.115   1.104   1.100   1.136   1.163   1.144   1.120   1.128   1.145   1.123   1.151   1.158   1.134   1.144   1.111   1.096   1.128   1.143   1.149   1.151   1.117   1.111   1.130   1.111   1.133   1.135   1.182   1.154   1.171   1.154   1.135   1.128   1.148   1.181   1.171   1.146   1.185   1.188   1.248   1.230   1.216   1.189   1.186   1.195   1.162

   Mean standard deviation across all grid points:
      u component:    2.302 m/s
      v component:    1.905 m/s
      w component:    1.145 m/s


U-component (X) statistics from the interpolated hub point:

   Mean =  11.6748 m/s
   TI   =  18.6562 %


Processing complete.  11012 CPU seconds used.
