
This summary file was generated by TurbSim (from OpenFAST-v3.3.0) on 05-Jan-2023 at 07:51:37.


Runtime Options:

         1  Random seed #1
         0  Random seed #2
         F  Output binary HH turbulence parameters?
         F  Output formatted turbulence parameters?
         F  Output AeroDyn HH files?
         T  Output AeroDyn FF files?
         F  Output BLADED FF files?
         F  Output tower data?
         F  Output HAWC FF files?
         F  Output formatted FF files?
         T  Output coherent turbulence time step file?
 0 -  NONE  IEC turbulence models scaled to exact specified standard deviation


Turbine/Model Specifications:

        24  Vertical grid-point matrix dimension
       287  Horizontal grid-point matrix dimension
     0.100  Time step [seconds]
   600.000  Analysis time [seconds]
   600.000  Usable output time [seconds]
   288.500  Hub height [m]
   575.000  Grid height [m]
  7150.000  Grid width [m]
     0.000  Vertical flow angle [degrees]
     0.000  Horizontal flow angle [degrees]


Meteorological Boundary Conditions:

    IECKAI  IEC Kaimal spectral model
         1  IEC standard: IEC 61400-1 Ed. 3: 2005
         A  IEC turbulence characteristic
       NTM  IEC Normal Turbulence Model
       N/A  IEC Extreme Turbulence Model (ETM) "c" parameter [m/s]
       PL   Wind profile type
   119.000  Reference height [m]
    11.400  Reference wind speed [m/s]
       N/A  Jet height [m]
     0.100  Power law exponent
     0.030  Surface roughness length [m]


Non-IEC Meteorological Boundary Conditions:

       N/A  Site latitude [degrees]
       N/A  Gradient Richardson number
       N/A  Friction or shear velocity [m/s]
       N/A  Mixing layer depth [m]
       N/A  Mean hub u'w' Reynolds stress
       N/A  Mean hub u'v' Reynolds stress
       N/A  Mean hub v'w' Reynolds stress


Spatial Coherence Models:

       IEC  u-component coherence model
       IEC  v-component coherence model
       IEC  w-component coherence model
(   12.000, 0.659E-03)  u-component coherence parameters
(   12.000, 0.659E-03)  v-component coherence parameters
(   12.000, 0.659E-03)  w-component coherence parameters
       N/A  Coherence exponent


You have requested that the following file(s) be generated:

   LowLarger.bts (AeroDyn/TurbSim full-field wind file)


Turbulence Simulation Scaling Parameter Summary:

   Turbulence model used                            =  IEC Kaimal
   Turbulence characteristic                        =  A
   IEC turbulence type                              =  Normal Turbulence Model
   IEC standard                                     =  IEC 61400-1 Ed. 3: 2005
   Mean wind speed at hub height                    =   12.456 m/s
   Expected value of turbulence intensity at 15 m/s =   16.000%
   Characteristic value of standard deviation       =    2.391 m/s
   Turbulence scale                                 =   42.000 m
   u-component integral scale                       =  340.200 m
   Coherency scale                                  =  340.200 m
   Characteristic value of hub turbulence intensity =   19.194%
   Gradient Richardson number                       =    0.000

   Wind profile type                                =  Power law
   Power law exponent                               =    0.100
   Mean shear across rotor disk                     =    0.011 (m/s)/m
   Assumed rotor diameter                           =  575.000 m
   Surface roughness length                         =    0.030 m

   Nyquist frequency of turbulent wind field        =    5.000 Hz

   Number of time steps in the FFT                  =     6000
   Number of time steps output                      =     6000
   Number of points simulated                       =     6889


Mean Flow Angles:

   Vertical   =   0.0 degrees
   Horizontal =   0.0 degrees

Mean Wind Speed Profile:

   Height    Wind Speed   Horizontal Angle  Vertical Angle  U-comp (X)   V-comp (Y)   W-comp (Z)
     (m)        (m/s)         (degrees)       (degrees)       (m/s)        (m/s)        (m/s)   
   ------    ----------   ----------------  --------------  ----------   ----------   ----------
    576.0       13.35            0.00            0.00         13.35         0.00         0.00
    551.0       13.29            0.00            0.00         13.29         0.00         0.00
    526.0       13.23            0.00            0.00         13.23         0.00         0.00
    501.0       13.16            0.00            0.00         13.16         0.00         0.00
    476.0       13.10            0.00            0.00         13.10         0.00         0.00
    451.0       13.02            0.00            0.00         13.02         0.00         0.00
    426.0       12.95            0.00            0.00         12.95         0.00         0.00
    401.0       12.87            0.00            0.00         12.87         0.00         0.00
    376.0       12.79            0.00            0.00         12.79         0.00         0.00
    351.0       12.70            0.00            0.00         12.70         0.00         0.00
    326.0       12.61            0.00            0.00         12.61         0.00         0.00
    301.0       12.51            0.00            0.00         12.51         0.00         0.00
    288.5       12.46            0.00            0.00         12.46         0.00         0.00
    276.0       12.40            0.00            0.00         12.40         0.00         0.00
    251.0       12.28            0.00            0.00         12.28         0.00         0.00
    226.0       12.16            0.00            0.00         12.16         0.00         0.00
    201.0       12.01            0.00            0.00         12.01         0.00         0.00
    176.0       11.85            0.00            0.00         11.85         0.00         0.00
    151.0       11.67            0.00            0.00         11.67         0.00         0.00
    126.0       11.47            0.00            0.00         11.47         0.00         0.00
    101.0       11.21            0.00            0.00         11.21         0.00         0.00
     76.0       10.90            0.00            0.00         10.90         0.00         0.00
     51.0       10.47            0.00            0.00         10.47         0.00         0.00
     26.0        9.79            0.00            0.00          9.79         0.00         0.00
      1.0        7.07            0.00            0.00          7.07         0.00         0.00


Harvested Random Seeds after Generation of the Random Numbers:

     49063644 Harvested seed # 1
   1889440760 Harvested seed # 2
